Circuit: * C:\Users\kipman725\Documents\GitHub\MegaPlateAmp\Sims\basic_buck\QuadPhase.asc

WARNING: Less than two connections to node FS_1.  This node is used by V10.
WARNING: Less than two connections to node FS_2.  This node is used by V15.
Direct Newton iteration failed to find .op point.  (Use ".option noopiter" to skip.)
Starting Gmin stepping
Gmin = 10
Gmin = 1.07374
Gmin = 0.115292
Gmin = 0.0123794
Gmin = 0.00132923
Gmin = 0.000142725
Gmin = 1.5325e-05
Gmin = 1.6455e-06
Gmin = 1.76685e-07
Gmin = 1.89714e-08
Gmin = 2.03704e-09
Gmin = 2.18725e-10
Gmin = 2.34854e-11
Gmin = 2.52173e-12
Gmin = 2.70769e-13
Gmin = 0
Gmin stepping succeeded in finding the operating point.


Date: Sun Apr  5 20:51:46 2020
Total elapsed time: 14.145 seconds.

tnom = 27
temp = 27
method = modified trap
totiter = 632296
traniter = 631902
tranpoints = 193086
accept = 165867
rejected = 27219
matrix size = 124
fillins = 44
solver = Normal
Thread vector: 10.6/6.7[2] 6.8/3.2[2] 0.9/1.5[1] 0.5/0.9[1]  2592/500
Matrix Compiler1: 6.56 KB object code size  2.4/1.0/[0.6]
Matrix Compiler2: 9.02 KB object code size  1.6/1.7/[0.6]

