Stray ".ends" card: .ends
Circuit: * C:\Users\kipman725\Documents\GitHub\MegaPlateAmp\Sims\CurrentMonMorbid\isense01_neg_rail_AC.asc

Direct Newton iteration failed to find .op point.  (Use ".option noopiter" to skip.)
Starting Gmin stepping
Gmin = 10
Gmin = 1.07374
Gmin = 0.115292
Gmin = 0.0123794
Gmin = 0.00132923
Gmin = 0.000142725
Gmin = 1.5325e-05
Gmin = 1.6455e-06
vernier = 0.5
Gmin = 2.7607e-07
vernier = 0.666667
Gmin = 7.08798e-08
vernier = 0.888888
vernier = 1
Gmin = 9.33136e-09
Gmin = 1.00195e-09
Gmin = 1.07583e-10
Gmin = 1.15517e-11
Gmin = 1.24035e-12
Gmin = 1.33182e-13
Gmin = 0
Gmin stepping succeeded in finding the operating point.


Date: Sun Apr 19 12:10:33 2020
Total elapsed time: 0.049 seconds.

tnom = 27
temp = 27
method = trap
totiter = 673
traniter = 0
tranpoints = 0
accept = 0
rejected = 0
matrix size = 44
fillins = 48
solver = Normal
Matrix Compiler1:     356 opcodes
Matrix Compiler2: off  [0.6]/0.8/1.0

