Stray ".ends" card: .ends
Circuit: * C:\Users\kipman725\Documents\GitHub\MegaPlateAmp\Sims\CurrentMonMorbid\isense01.asc

Direct Newton iteration failed to find .op point.  (Use ".option noopiter" to skip.)
Starting Gmin stepping
Gmin = 10
Gmin = 1.07374
Gmin = 0.115292
Gmin = 0.0123794
Gmin = 0.00132923
Gmin = 0.000142725
Gmin = 1.5325e-05
Gmin = 1.6455e-06
vernier = 0.5
vernier = 0.25
Gmin = 5.97037e-07
vernier = 0.125
vernier = 0.0625
vernier = 0.03125
vernier = 0.015625
Gmin = 6.0097e-07
vernier = 0.0078125
vernier = 0.0104167
Gmin = 5.9051e-07
vernier = 0.0138889
vernier = 0.0185185
Gmin = 5.71217e-07
vernier = 0.0246913
Gmin = 5.41263e-07
vernier = 0.0329218
vernier = 0.0438957
Gmin = 4.95629e-07
vernier = 0.0585276
vernier = 0.0780367
Gmin = 4.31216e-07
vernier = 0.104049
Gmin = 3.44331e-07
vernier = 0.138732
vernier = 0.184976
Gmin = 2.38826e-07
vernier = 0.246634
vernier = 0.328846
Gmin = 1.34574e-07
vernier = 0.438461
Gmin = 5.38937e-08
vernier = 0.584614
vernier = 0.779486
Gmin = 1.25587e-08
vernier = 1
Gmin = 1.54387e-09
Gmin = 1.65772e-10
Gmin = 1.77997e-11
Gmin = 1.91122e-12
Gmin = 2.05216e-13
Gmin = 0
Gmin stepping succeeded in finding the operating point.


Date: Tue Apr  7 22:23:40 2020
Total elapsed time: 0.226 seconds.

tnom = 27
temp = 27
method = modified trap
totiter = 3823
traniter = 2214
tranpoints = 1107
accept = 1079
rejected = 28
matrix size = 42
fillins = 48
solver = Normal
Matrix Compiler1: 6.26 KB object code size  3.0/1.1/[0.4]
Matrix Compiler2: 4.81 KB object code size  0.6/0.8/[0.6]

