Circuit: * C:\Users\kipman725\Documents\GitHub\MegaPlateAmp\Sims\GaNSystems\GN008_ADAPTED_BUCK.asc

Direct Newton iteration for .op point skipped.
Gmin stepping method for .op point skipped.
Starting source stepping with srcstepmethod=0
Source Step = 3.0303%
Source Step = 33.3333%
Source Step = 63.6364%
Source Step = 93.9394%
Source stepping succeeded in finding the operating point.


Date: Thu Apr  9 20:01:23 2020
Total elapsed time: 12.636 seconds.

tnom = 27
temp = 25
method = modified trap
totiter = 657279
traniter = 657182
tranpoints = 310851
accept = 307409
rejected = 3442
matrix size = 43
fillins = 33
solver = Normal
Matrix Compiler1: 4.10 KB object code size  1.1/0.6/[0.3]
Matrix Compiler2: off  [0.5]/0.9/0.7

