Circuit: * C:\Users\kipman725\Documents\GitHub\MegaPlateAmp\Sims\GaNSystems\GN008_GANSYS_Half_Bridge_Switching_Test_v2.asc

Direct Newton iteration for .op point skipped.
Gmin stepping method for .op point skipped.
Starting source stepping with srcstepmethod=0
Source Step = 3.0303%
Source Step = 33.3333%
Source Step = 63.6364%
Source Step = 93.9394%
Source stepping succeeded in finding the operating point.


Date: Thu Apr  9 22:07:09 2020
Total elapsed time: 1.242 seconds.

tnom = 27
temp = 25
method = modified trap
totiter = 61558
traniter = 61461
tranpoints = 30274
accept = 30197
rejected = 77
matrix size = 43
fillins = 33
solver = Normal
Matrix Compiler1: 4.10 KB object code size  1.6/0.5/[0.3]
Matrix Compiler2: off  [0.5]/0.6/0.7

