Circuit: * C:\Users\kipman725\Documents\GitHub\MegaPlateAmp\Sims\GaNSystems\HB_TEST_GAN.asc

Direct Newton iteration for .op point skipped.
Gmin stepping method for .op point skipped.
Starting source stepping with srcstepmethod=0
Source Step = 3.0303%
Source Step = 33.3333%
Source Step = 63.6364%
Source Step = 93.9394%
Source stepping succeeded in finding the operating point.


Date: Wed Apr 15 22:06:52 2020
Total elapsed time: 4.648 seconds.

tnom = 27
temp = 25
method = modified trap
totiter = 296639
traniter = 296568
tranpoints = 131958
accept = 123622
rejected = 8336
matrix size = 17
fillins = 9
solver = Normal
Matrix Compiler1: 1.56 KB object code size  0.6/0.2/[0.2]
Matrix Compiler2: off  [0.2]/0.2/0.5

