Circuit: * C:\Users\kipman725\Documents\GitHub\MegaPlateAmp\Sims\Onsemi_test\HB_TEST.asc

Warning: Pscbe2 = 0 is not positive.
Warning: Pscbe2 = 0 is not positive.
Direct Newton iteration for .op point succeeded.
Changing Tseed to 1e-12
Heightened Def Con from 2.20731e-07 to 2.23731e-07
Heightened Def Con from 3.98784e-07 to 4.00909e-07
Heightened Def Con from 5.77092e-07 to 5.80092e-07
Heightened Def Con from 5.90069e-07 +to 5.93194e-07
Heightened Def Con from 6.63588e-07 to 6.64588e-07
Heightened Def Con from 6.85215e-07 to 6.88215e-07
Heightened Def Con from 7.12537e-07 to 7.13662e-07
Heightened Def Con from 7.51188e-07 to 7.51313e-07
Heightened Def Con from 7.53662e-07 to 7.54787e-07
Heightened Def Con from 7.74023e-07 +to 7.79023e-07
Heightened Def Con from 8.0167e-07 to 8.0467e-07
Heightened Def Con from 8.14362e-07 to 8.15487e-07
Heightened Def Con from 8.32864e-07 to 8.35864e-07
Heightened Def Con from 8.58004e-07 to 8.59129e-07
Heightened Def Con from 8.63989e-07 to 8.66989e-07
Heightened Def Con from 8.98799e-07 to 9.01799e-07
Heightened Def Con from 9.25308e-07 to 9.26433e-07
Heightened Def Con from 9.28423e-07 +to 9.33423e-07
Heightened Def Con from 9.5646e-07 to 9.5946e-07
Heightened Def Con from 1.05134e-06 to 1.05234e-06
Heightened Def Con from 1.05503e-06 to 1.05616e-06
Heightened Def Con from 1.07655e-06 +to 1.08155e-06
Heightened Def Con from 1.10415e-06 to 1.10527e-06
Heightened Def Con from 1.14211e-06 to 1.14511e-06
Heightened Def Con from 1.14971e-06 to 1.15271e-06
Heightened Def Con from 1.17754e-06 to 1.17867e-06
Heightened Def Con from 1.1807e-06 to 1.18283e-06
Heightened Def Con from 1.21693e-06 to 1.21993e-06
Heightened Def Con from 1.24247e-06 to 1.24547e-06
Heightened Def Con from 1.29896e-06 +to 1.30197e-06
Heightened Def Con from 1.30425e-06 to 1.30725e-06
Heightened Def Con from 1.32823e-06 to 1.32935e-06
Heightened Def Con from 1.33152e-06 to 1.33452e-06
Heightened Def Con from 1.35747e-06 to 1.35959e-06
Heightened Def Con from 1.3616e-06 to 1.36273e-06
Heightened Def Con from 1.39549e-06 to 1.39661e-06
Heightened Def Con from 1.41663e-06 to 1.41963e-06
Heightened Def Con from 1.42701e-06 to 1.42814e-06
Heightened Def Con from 1.46588e-06 to 1.46888e-06
Heightened Def Con from 1.4734e-06 to 1.4764e-06
Heightened Def Con from 1.49632e-06 to 1.49932e-06
Heightened Def Con from 1.52208e-06 to 1.52508e-06
Heightened Def Con from 1.53016e-06 to 1.53118e-06
Heightened Def Con from 1.55153e-06 to 1.55453e-06
Heightened Def Con from 1.57743e-06 to 1.57855e-06
Heightened Def Con from 1.58186e-06 to 1.58486e-06
Heightened Def Con from 1.61134e-06 +to 1.61634e-06
Heightened Def Con from 1.66696e-06 to 1.66996e-06
Heightened Def Con from 1.69329e-06 +to 1.69631e-06
Heightened Def Con from 1.71756e-06 to 1.71869e-06
Heightened Def Con from 1.72074e-06 to 1.72187e-06
Heightened Def Con from 1.72379e-06 +to 1.72879e-06
Heightened Def Con from 1.76263e-06 +to 1.76763e-06
Heightened Def Con from 1.79169e-06 to 1.79469e-06
Heightened Def Con from 1.80292e-06 to 1.80592e-06
Heightened Def Con from 1.83728e-06 +to 1.84228e-06
Heightened Def Con from 1.896e-06 to 1.89813e-06
Heightened Def Con from 1.95867e-06 to 1.9608e-06
Heightened Def Con from 1.96291e-06 to 1.96591e-06
Heightened Def Con from 1.98922e-06 to 1.99134e-06
Heightened Def Con from 1.9936e-06 to 1.9966e-06
Heightened Def Con from 1.99668e-06 to 1.99968e-06
Heightened Def Con from 2.01071e-06 to 2.01371e-06
Heightened Def Con from 2.0439e-06 to 2.04602e-06
Heightened Def Con from 2.04804e-06 to 2.04905e-06
Heightened Def Con from 2.04909e-06 to 2.05209e-06
Heightened Def Con from 2.08992e-06 +to 2.09492e-06
Heightened Def Con from 2.11736e-06 to 2.11849e-06
Heightened Def Con from 2.12179e-06 to 2.12391e-06
Heightened Def Con from 2.14606e-06 +to 2.14818e-06
Heightened Def Con from 2.17217e-06 +to 2.1753e-06
Heightened Def Con from 2.23074e-06 to 2.23374e-06
Heightened Def Con from 2.25748e-06 to 2.26048e-06
Heightened Def Con from 2.28337e-06 to 2.28449e-06
Heightened Def Con from 2.32229e-06 to 2.32529e-06
Heightened Def Con from 2.34539e-06 to 2.34839e-06
Heightened Def Con from 2.38391e-06 to 2.38691e-06
Heightened Def Con from 2.40002e-06 to 2.40215e-06
Heightened Def Con from 5.22576e-06 to 5.22876e-06
Heightened Def Con from 5.53074e-06 to 5.53374e-06
Heightened Def Con from 5.55311e-06 +to 5.55524e-06
Heightened Def Con from 5.59921e-06 to 5.60221e-06
Heightened Def Con from 5.64142e-06 to 5.64255e-06
Heightened Def Con from 5.69913e-06 to 5.70213e-06
Heightened Def Con from 5.72352e-06 to 5.72454e-06
Heightened Def Con from 5.72643e-06 to 5.72755e-06
Heightened Def Con from 5.77414e-06 +to 5.77827e-06
Heightened Def Con from 5.80113e-06 to 5.80413e-06
Heightened Def Con from 5.83861e-06 to 5.83961e-06
Heightened Def Con from 5.83962e-06 to 5.84262e-06
Heightened Def Con from 5.85106e-06 to 5.85406e-06
Heightened Def Con from 5.87165e-06 to 5.87465e-06
Heightened Def Con from 5.89577e-06 to 5.8969e-06
Heightened Def Con from 5.92273e-06 to 5.92386e-06
Heightened Def Con from 5.92656e-06 to 5.92956e-06
Heightened Def Con from 5.98655e-06 +to 5.99155e-06
Heightened Def Con from 6.01931e-06 to 6.02043e-06
Heightened Def Con from 6.04037e-06 ++to 6.0455e-06
Heightened Def Con from 6.09803e-06 to 6.09915e-06
Heightened Def Con from 6.12157e-06 to 6.12269e-06
Heightened Def Con from 6.15417e-06 to 6.15529e-06
Heightened Def Con from 6.1579e-06 to 6.15903e-06
Heightened Def Con from 6.1606e-06 to 6.16173e-06
Heightened Def Con from 6.18204e-06 to 6.18504e-06
Heightened Def Con from 6.22217e-06 to 6.22517e-06
Heightened Def Con from 6.24669e-06 to 6.24771e-06
Heightened Def Con from 6.26428e-06 to 6.26728e-06
Heightened Def Con from 6.31331e-06 +to 6.31831e-06
Heightened Def Con from 6.3198e-06 +to 6.3248e-06
Heightened Def Con from 6.40832e-06 to 6.40932e-06
Heightened Def Con from 6.41155e-06 to 6.41455e-06
Heightened Def Con from 6.43521e-06 to 6.43633e-06
Heightened Def Con from 6.46066e-06 to 6.46178e-06
Heightened Def Con from 6.46373e-06 to 6.46673e-06
Heightened Def Con from 6.5074e-06 to 6.50853e-06
Heightened Def Con from 6.51187e-06 to 6.51487e-06
Heightened Def Con from 6.51706e-06 to 6.51819e-06
Heightened Def Con from 6.51819e-06 to 6.51831e-06
Heightened Def Con from 6.5189e-06 to 6.5219e-06
Heightened Def Con from 6.56453e-06 to 6.56753e-06
Heightened Def Con from 6.56982e-06 to 6.57282e-06
Heightened Def Con from 6.57995e-06 +to 6.58297e-06
Heightened Def Con from 6.60677e-06 to 6.60977e-06
Heightened Def Con from 6.63402e-06 to 6.63515e-06
Heightened Def Con from 6.66394e-06 to 6.66694e-06
Heightened Def Con from 6.69104e-06 to 6.69216e-06
Heightened Def Con from 6.69408e-06 to 6.69708e-06
Heightened Def Con from 6.74898e-06 to 6.75e-06
Heightened Def Con from 6.75004e-06 to 6.75304e-06
Heightened Def Con from 6.77564e-06 +to 6.77876e-06
Heightened Def Con from 6.81958e-06 to 6.82258e-06
Heightened Def Con from 6.85888e-06 to 6.86188e-06
Heightened Def Con from 6.87442e-06 to 6.87555e-06
Heightened Def Con from 6.89617e-06 to 6.89917e-06
Heightened Def Con from 6.92378e-06 to 6.92491e-06
Heightened Def Con from 6.92664e-06 to 6.92776e-06
Heightened Def Con from 6.93617e-06 +to 6.93929e-06
Heightened Def Con from 6.96216e-06 to 6.96328e-06
Heightened Def Con from 6.96609e-06 +to 6.97109e-06
Heightened Def Con from 7.03019e-06 to 7.03131e-06
Heightened Def Con from 7.03322e-06 to 7.03622e-06
Heightened Def Con from 7.07558e-06 to 7.07858e-06
Heightened Def Con from 7.10826e-06 to 7.10938e-06
Heightened Def Con from 7.1113e-06 +to 7.11442e-06
Heightened Def Con from 7.13789e-06 to 7.13902e-06
Heightened Def Con from 7.17326e-06 to 7.17626e-06
Heightened Def Con from 7.19662e-06 to 7.19774e-06
Heightened Def Con from 7.19965e-06 +to 7.20465e-06
Heightened Def Con from 7.27405e-06 to 7.27518e-06
Heightened Def Con from 7.27743e-06 to 7.28043e-06
Heightened Def Con from 7.30338e-06 to 7.30439e-06
Heightened Def Con from 7.30645e-06 to 7.30945e-06
Heightened Def Con from 7.33563e-06 +to 7.33875e-06
Heightened Def Con from 7.37504e-06 to 7.37804e-06
Heightened Def Con from 1.05727e-05 to 1.05738e-05
Heightened Def Con from 1.06566e-05 to 1.06596e-05
Heightened Def Con from 1.07087e-05 to 1.07117e-05
Heightened Def Con from 1.07347e-05 to 1.07359e-05
Heightened Def Con from 1.0774e-05 to 1.07751e-05
Heightened Def Con from 1.07988e-05 to 1.08018e-05
Heightened Def Con from 1.08262e-05 to 1.08292e-05
Heightened Def Con from 1.08341e-05 to 1.08371e-05
Heightened Def Con from 1.11078e-05 to 1.11088e-05
Heightened Def Con from 1.11108e-05 to 1.11138e-05
Heightened Def Con from 1.11687e-05 to 1.11717e-05
Heightened Def Con from 1.12048e-05 to 1.12068e-05
Heightened Def Con from 1.12281e-05 to 1.12293e-05
Heightened Def Con from 1.12315e-05 to 1.12326e-05
Heightened Def Con from 1.12342e-05 to 1.12346e-05
Heightened Def Con from 1.12346e-05 to 1.12376e-05
Heightened Def Con from 1.12749e-05 +to 1.12779e-05
Heightened Def Con from 1.1312e-05 to 1.1315e-05
Heightened Def Con from 1.13413e-05 +to 1.13463e-05
Heightened Def Con from 1.14131e-05 to 1.14161e-05
Heightened Def Con from 1.1427e-05 to 1.143e-05
Heightened Def Con from 1.14502e-05 to 1.14532e-05
Heightened Def Con from 1.14771e-05 to 1.14781e-05
Heightened Def Con from 1.14812e-05 to 1.14842e-05
Heightened Def Con from 1.15195e-05 to 1.15207e-05
Heightened Def Con from 1.15232e-05 to 1.15243e-05
Heightened Def Con from 1.15448e-05 to 1.15459e-05
Heightened Def Con from 1.15801e-05 to 1.15812e-05
Heightened Def Con from 1.15831e-05 to 1.15843e-05
Heightened Def Con from 1.15858e-05 to 1.15879e-05
Heightened Def Con from 1.16212e-05 +to 1.16262e-05
Heightened Def Con from 1.16365e-05 to 1.16376e-05
Heightened Def Con from 1.16598e-05 to 1.16608e-05
Heightened Def Con from 1.16833e-05 to 1.16863e-05
Heightened Def Con from 1.17064e-05 to 1.17094e-05
Heightened Def Con from 1.17117e-05 to 1.17147e-05
Heightened Def Con from 1.17546e-05 to 1.17576e-05
Heightened Def Con from 1.17807e-05 to 1.17837e-05
Heightened Def Con from 1.18069e-05 to 1.18081e-05
Heightened Def Con from 1.18108e-05 to 1.18138e-05
Heightened Def Con from 1.1815e-05 +to 1.182e-05
Heightened Def Con from 1.18792e-05 to 1.18804e-05
Heightened Def Con from 1.18853e-05 to 1.18864e-05
Heightened Def Con from 1.19081e-05 to 1.19111e-05
Heightened Def Con from 1.19346e-05 +to 1.19376e-05
Heightened Def Con from 1.19376e-05 +to 1.19406e-05
Heightened Def Con from 1.19622e-05 to 1.19644e-05
Heightened Def Con from 1.198e-05 to 1.19811e-05
Heightened Def Con from 1.19918e-05 to 1.19948e-05
Heightened Def Con from 1.20174e-05 to 1.20204e-05
Heightened Def Con from 1.20434e-05 to 1.20445e-05
Heightened Def Con from 1.20468e-05 to 1.20478e-05
Heightened Def Con from 1.20832e-05 to 1.20862e-05
Heightened Def Con from 1.21111e-05 to 1.21123e-05
Heightened Def Con from 1.2115e-05 to 1.21171e-05
Heightened Def Con from 1.21184e-05 to 1.21214e-05
Heightened Def Con from 1.21226e-05 +to 1.21257e-05
Heightened Def Con from 1.21475e-05 to 1.21486e-05
Heightened Def Con from 1.21512e-05 to 1.21522e-05
Heightened Def Con from 1.21522e-05 ++to 1.21592e-05
Heightened Def Con from 1.22516e-05 to 1.22546e-05
Heightened Def Con from 1.22682e-05 to 1.22712e-05
Heightened Def Con from 1.22975e-05 to 1.22987e-05
Heightened Def Con from 1.23006e-05 to 1.23017e-05
Heightened Def Con from 1.23424e-05 to 1.23454e-05
Heightened Def Con from 1.23862e-05 +to 1.23912e-05
Heightened Def Con from 1.24e-05 to 1.24006e-05
Heightened Def Con from 1.50807e-05 to 1.50837e-05
Heightened Def Con from 1.55774e-05 to 1.55784e-05
Heightened Def Con from 1.55952e-05 to 1.55982e-05
Heightened Def Con from 1.56196e-05 to 1.56216e-05
Heightened Def Con from 1.56238e-05 to 1.56268e-05
Heightened Def Con from 1.56473e-05 to 1.56503e-05
Heightened Def Con from 1.56733e-05 to 1.56744e-05
Heightened Def Con from 1.56766e-05 to 1.56778e-05
Heightened Def Con from 1.57162e-05 to 1.57192e-05
Heightened Def Con from 1.57531e-05 to 1.57561e-05
Heightened Def Con from 1.57882e-05 +to 1.57932e-05
Heightened Def Con from 1.58274e-05 to 1.58304e-05
Heightened Def Con from 1.58794e-05 to 1.58806e-05
Heightened Def Con from 1.58832e-05 to 1.58843e-05
Heightened Def Con from 1.58858e-05 to 1.58879e-05
Heightened Def Con from 1.59203e-05 to 1.59223e-05
Heightened Def Con from 1.59287e-05 to 1.59298e-05
Heightened Def Con from 1.5953e-05 to 1.5954e-05
Heightened Def Con from 1.59599e-05 to 1.59609e-05
Heightened Def Con from 1.59621e-05 to 1.59651e-05
Heightened Def Con from 1.59793e-05 to 1.59803e-05
Heightened Def Con from 1.6017e-05 to 1.602e-05
Heightened Def Con from 1.60561e-05 to 1.60591e-05
Heightened Def Con from 1.60814e-05 to 1.60844e-05
Heightened Def Con from 1.6108e-05 to 1.6111e-05
Heightened Def Con from 1.61242e-05 to 1.61272e-05
Heightened Def Con from 1.61523e-05 to 1.61534e-05
Heightened Def Con from 1.61562e-05 to 1.61572e-05
Heightened Def Con from 1.61792e-05 to 1.61822e-05
Heightened Def Con from 1.61955e-05 +to 1.61995e-05
Heightened Def Con from 1.61995e-05 to 1.62025e-05
Heightened Def Con from 1.6258e-05 to 1.6261e-05
Heightened Def Con from 1.62964e-05 to 1.62976e-05
Heightened Def Con from 1.63218e-05 to 1.63248e-05
Heightened Def Con from 1.63814e-05 to 1.63826e-05
Heightened Def Con from 1.63849e-05 +to 1.63899e-05
Heightened Def Con from 1.64125e-05 to 1.64147e-05
Heightened Def Con from 1.64167e-05 +to 1.64198e-05
Heightened Def Con from 1.64677e-05 to 1.64707e-05
Heightened Def Con from 1.64952e-05 +to 1.65002e-05
Heightened Def Con from 1.65347e-05 +to 1.65378e-05
Heightened Def Con from 1.65707e-05 +to 1.65738e-05
Heightened Def Con from 1.65967e-05 to 1.65997e-05
Heightened Def Con from 1.66352e-05 to 1.66363e-05
Heightened Def Con from 1.66376e-05 to 1.66387e-05
Heightened Def Con from 1.66388e-05 to 1.66399e-05
Heightened Def Con from 1.6662e-05 to 1.6664e-05
Heightened Def Con from 1.66661e-05 to 1.66671e-05
Heightened Def Con from 1.66672e-05 to 1.66702e-05
Heightened Def Con from 1.66923e-05 to 1.66934e-05
Heightened Def Con from 1.66961e-05 to 1.66972e-05
Heightened Def Con from 1.67366e-05 to 1.67378e-05
Heightened Def Con from 1.67397e-05 to 1.67408e-05
Heightened Def Con from 1.67431e-05 +to 1.67481e-05
Heightened Def Con from 1.67834e-05 to 1.67844e-05
Heightened Def Con from 1.68039e-05 to 1.68069e-05
Heightened Def Con from 1.68405e-05 to 1.68426e-05
Heightened Def Con from 1.68633e-05 to 1.68645e-05
Heightened Def Con from 1.68664e-05 to 1.68694e-05
Heightened Def Con from 1.6908e-05 to 1.6911e-05
Heightened Def Con from 1.69344e-05 to 1.69374e-05
Heightened Def Con from 1.70081e-05 to 1.70111e-05
Heightened Def Con from 1.70308e-05 to 1.70319e-05
Heightened Def Con from 1.7035e-05 to 1.70361e-05
Heightened Def Con from 1.70714e-05 to 1.70725e-05
Heightened Def Con from 1.70743e-05 to 1.70773e-05
Heightened Def Con from 1.70974e-05 to 1.70985e-05
Heightened Def Con from 1.71023e-05 to 1.71034e-05
Heightened Def Con from 1.71602e-05 to 1.71613e-05
Heightened Def Con from 1.71633e-05 to 1.71663e-05
Heightened Def Con from 1.71734e-05 to 1.71745e-05
Heightened Def Con from 1.7175e-05 to 1.7177e-05
Heightened Def Con from 1.7177e-05 to 1.718e-05
Heightened Def Con from 1.71946e-05 to 1.71976e-05
Heightened Def Con from 1.72125e-05 to 1.72135e-05
Heightened Def Con from 1.72136e-05 +to 1.72186e-05
Heightened Def Con from 1.72798e-05 to 1.72819e-05
Heightened Def Con from 1.73188e-05 to 1.73218e-05
Heightened Def Con from 1.7343e-05 +to 1.73462e-05
Heightened Def Con from 1.73715e-05 to 1.73745e-05
Heightened Def Con from 1.73981e-05 to 1.73992e-05
Heightened Def Con from 1.73992e-05 to 1.74001e-05
Heightened Def Con from 2.05318e-05 to 2.05328e-05
Heightened Def Con from 2.08046e-05 to 2.08076e-05
Heightened Def Con from 2.08291e-05 +to 2.08341e-05
Heightened Def Con from 2.08391e-05 to 2.08402e-05
Heightened Def Con from 2.09099e-05 to 2.09109e-05
Heightened Def Con from 2.09109e-05 to 2.09139e-05
Heightened Def Con from 2.09168e-05 to 2.09179e-05
Heightened Def Con from 2.09362e-05 to 2.09392e-05
Heightened Def Con from 2.09624e-05 +to 2.09674e-05
Heightened Def Con from 2.10034e-05 to 2.10064e-05
Heightened Def Con from 2.10313e-05 to 2.10325e-05
Heightened Def Con from 2.10533e-05 to 2.10544e-05
Heightened Def Con from 2.10565e-05 to 2.10595e-05
Heightened Def Con from 2.10829e-05 to 2.10859e-05
Heightened Def Con from 2.10994e-05 +to 2.11044e-05
Heightened Def Con from 2.11175e-05 +to 2.11206e-05
Heightened Def Con from 2.11464e-05 to 2.11494e-05
Heightened Def Con from 2.11737e-05 to 2.11749e-05
Heightened Def Con from 2.12122e-05 +to 2.12172e-05
Heightened Def Con from 2.12205e-05 to 2.12235e-05
Heightened Def Con from 2.12352e-05 to 2.12363e-05
Heightened Def Con from 2.12376e-05 to 2.1238e-05
Heightened Def Con from 2.12386e-05 to 2.12407e-05
Heightened Def Con from 2.12811e-05 to 2.12822e-05
Heightened Def Con from 2.12842e-05 to 2.12852e-05
Heightened Def Con from 2.12866e-05 +to 2.12887e-05
Heightened Def Con from 2.13221e-05 to 2.13251e-05
Heightened Def Con from 2.13484e-05 +to 2.13534e-05
Heightened Def Con from 2.14167e-05 +to 2.14198e-05
Heightened Def Con from 2.14406e-05 +to 2.14447e-05
Heightened Def Con from 2.15049e-05 to 2.15079e-05
Heightened Def Con from 2.15313e-05 to 2.15343e-05
Heightened Def Con from 2.15586e-05 to 2.15596e-05
Heightened Def Con from 2.15949e-05 to 2.15979e-05
Heightened Def Con from 2.16105e-05 to 2.16135e-05
Heightened Def Con from 2.1639e-05 to 2.16412e-05
Heightened Def Con from 2.16651e-05 to 2.16681e-05
Heightened Def Con from 2.16911e-05 to 2.16941e-05
Heightened Def Con from 2.17343e-05 to 2.17373e-05
Heightened Def Con from 2.17606e-05 +to 2.17636e-05
Heightened Def Con from 2.17659e-05 to 2.17669e-05
Heightened Def Con from 2.17669e-05 +to 2.17719e-05
Heightened Def Con from 2.18116e-05 to 2.18146e-05
Heightened Def Con from 2.18431e-05 to 2.18461e-05
Heightened Def Con from 2.18589e-05 to 2.18601e-05
Heightened Def Con from 2.18705e-05 to 2.18735e-05
Heightened Def Con from 2.18978e-05 to 2.18999e-05
Heightened Def Con from 2.1902e-05 to 2.1903e-05
Heightened Def Con from 2.19031e-05 +to 2.19052e-05
Heightened Def Con from 2.19395e-05 to 2.19406e-05
Heightened Def Con from 2.19411e-05 +to 2.19461e-05
Heightened Def Con from 2.19684e-05 to 2.19714e-05
Heightened Def Con from 2.20065e-05 to 2.20076e-05
Heightened Def Con from 2.20097e-05 to 2.20118e-05
Heightened Def Con from 2.20131e-05 to 2.20161e-05
Heightened Def Con from 2.20386e-05 to 2.20416e-05
Heightened Def Con from 2.20786e-05 to 2.20796e-05
Heightened Def Con from 2.20799e-05 to 2.20829e-05
Heightened Def Con from 2.20954e-05 to 2.20984e-05
Heightened Def Con from 2.21288e-05 +to 2.2132e-05
Heightened Def Con from 2.21677e-05 to 2.21689e-05
Heightened Def Con from 2.21691e-05 to 2.21702e-05
Heightened Def Con from 2.22075e-05 to 2.22105e-05
Heightened Def Con from 2.22231e-05 to 2.22243e-05
Heightened Def Con from 2.22355e-05 to 2.22366e-05
Heightened Def Con from 2.22609e-05 +to 2.22659e-05
Heightened Def Con from 2.22893e-05 +to 2.22924e-05
Heightened Def Con from 2.2294e-05 to 2.2297e-05
Heightened Def Con from 2.23303e-05 to 2.23324e-05
Heightened Def Con from 2.23327e-05 to 2.23357e-05
Heightened Def Con from 2.23372e-05 to 2.23402e-05
Heightened Def Con from 2.23836e-05 to 2.23837e-05
Heightened Def Con from 2.23838e-05 to 2.23848e-05
Heightened Def Con from 2.49001e-05 to 2.49071e-05
Heightened Def Con from 2.52252e-05 +to 2.52292e-05
Heightened Def Con from 2.64077e-05 to 2.64087e-05
Heightened Def Con from 2.64114e-05 to 2.64144e-05
Heightened Def Con from 2.64164e-05 to 2.64194e-05
Heightened Def Con from 2.64415e-05 to 2.64445e-05
Heightened Def Con from 2.64596e-05 +to 2.64627e-05
Heightened Def Con from 2.64889e-05 to 2.649e-05
Heightened Def Con from 2.64927e-05 to 2.64957e-05
Heightened Def Con from 2.65168e-05 to 2.65198e-05
Heightened Def Con from 2.65778e-05 to 2.65808e-05
Heightened Def Con from 2.66074e-05 to 2.66085e-05
Heightened Def Con from 2.66104e-05 +to 2.66144e-05
Heightened Def Con from 2.66362e-05 to 2.66364e-05
Heightened Def Con from 2.66364e-05 to 2.66385e-05
Heightened Def Con from 2.66749e-05 to 2.66779e-05
Heightened Def Con from 2.67116e-05 to 2.67146e-05
Heightened Def Con from 2.67352e-05 to 2.67363e-05
Heightened Def Con from 2.67612e-05 to 2.67623e-05
Heightened Def Con from 2.67658e-05 to 2.67688e-05
Heightened Def Con from 2.68026e-05 to 2.68036e-05
Heightened Def Con from 2.68036e-05 to 2.68066e-05
Heightened Def Con from 2.68093e-05 to 2.68104e-05
Heightened Def Con from 2.68109e-05 to 2.6812e-05
Heightened Def Con from 2.68314e-05 +++to 2.68414e-05
Heightened Def Con from 2.69078e-05 to 2.6909e-05
Heightened Def Con from 2.6909e-05 ++to 2.6914e-05
Heightened Def Con from 2.69368e-05 to 2.69379e-05
Heightened Def Con from 2.69637e-05 to 2.69658e-05
Heightened Def Con from 2.70202e-05 to 2.70232e-05
Heightened Def Con from 2.70468e-05 to 2.70498e-05
Heightened Def Con from 2.70771e-05 to 2.70792e-05
Heightened Def Con from 2.71152e-05 to 2.71163e-05
Heightened Def Con from 2.71358e-05 to 2.71369e-05
Heightened Def Con from 2.71392e-05 +to 2.71442e-05
Heightened Def Con from 2.7167e-05 to 2.71681e-05
Heightened Def Con from 2.72058e-05 to 2.72069e-05
Heightened Def Con from 2.72072e-05 to 2.72082e-05
Heightened Def Con from 2.72097e-05 to 2.72107e-05
Heightened Def Con from 2.72109e-05 to 2.72139e-05
Heightened Def Con from 2.72354e-05 +to 2.72404e-05
Heightened Def Con from 2.73188e-05 to 2.73199e-05
Heightened Def Con from 2.73218e-05 to 2.73229e-05
Heightened Def Con from 2.73558e-05 to 2.73569e-05
Heightened Def Con from 2.73585e-05 to 2.73606e-05
Heightened Def Con from 2.73943e-05 to 2.73955e-05
Heightened Def Con from 3.01063e-05 to 3.01093e-05
Heightened Def Con from 3.02314e-05 to 3.02344e-05
Heightened Def Con from 3.06263e-05 to 3.06273e-05
Heightened Def Con from 3.06662e-05 to 3.06673e-05
Heightened Def Con from 3.06699e-05 to 3.06709e-05
Heightened Def Con from 3.06709e-05 to 3.06739e-05
Heightened Def Con from 3.0719e-05 to 3.0722e-05
Heightened Def Con from 3.07431e-05 to 3.07452e-05
Heightened Def Con from 3.07957e-05 to 3.07987e-05
Heightened Def Con from 3.08215e-05 +to 3.08265e-05
Heightened Def Con from 3.08589e-05 +to 3.0862e-05
Heightened Def Con from 3.08842e-05 +to 3.08873e-05
Heightened Def Con from 3.09104e-05 to 3.09115e-05
Heightened Def Con from 3.09142e-05 to 3.09153e-05
Heightened Def Con from 3.09161e-05 to 3.09162e-05
Heightened Def Con from 3.09504e-05 to 3.09534e-05
Heightened Def Con from 3.09905e-05 to 3.09916e-05
Heightened Def Con from 3.09935e-05 to 3.09946e-05
Heightened Def Con from 3.0997e-05 to 3.09981e-05
Heightened Def Con from 3.1018e-05 +to 3.1023e-05
Heightened Def Con from 3.1034e-05 to 3.1037e-05
Heightened Def Con from 3.10504e-05 to 3.10534e-05
Heightened Def Con from 3.10808e-05 to 3.10819e-05
Heightened Def Con from 3.10836e-05 to 3.10866e-05
Heightened Def Con from 3.10976e-05 +to 3.11008e-05
Heightened Def Con from 3.11037e-05 ++to 3.11077e-05
Heightened Def Con from 3.11411e-05 to 3.11441e-05
Heightened Def Con from 3.11801e-05 to 3.11831e-05
Heightened Def Con from 3.12052e-05 to 3.12063e-05
Heightened Def Con from 3.12235e-05 to 3.12246e-05
Heightened Def Con from 3.12292e-05 to 3.12302e-05
Heightened Def Con from 3.12302e-05 to 3.12332e-05
Heightened Def Con from 3.12569e-05 to 3.1258e-05
Heightened Def Con from 3.12607e-05 to 3.12618e-05
Heightened Def Con from 3.12972e-05 to 3.12983e-05
Heightened Def Con from 3.13001e-05 to 3.13012e-05
Heightened Def Con from 3.13461e-05 to 3.13491e-05
Heightened Def Con from 3.1374e-05 to 3.13751e-05
Heightened Def Con from 3.14236e-05 to 3.14247e-05
Heightened Def Con from 3.14266e-05 to 3.14276e-05
Heightened Def Con from 3.14276e-05 to 3.14278e-05
Heightened Def Con from 3.14415e-05 to 3.14436e-05
Heightened Def Con from 3.14685e-05 to 3.14696e-05
Heightened Def Con from 3.14725e-05 to 3.14736e-05
Heightened Def Con from 3.15196e-05 to 3.15207e-05
Heightened Def Con from 3.15227e-05 to 3.15257e-05
Heightened Def Con from 3.15382e-05 to 3.15383e-05
Heightened Def Con from 3.1539e-05 to 3.1542e-05
Heightened Def Con from 3.1557e-05 to 3.15581e-05
Heightened Def Con from 3.15626e-05 to 3.15647e-05
Heightened Def Con from 3.15874e-05 to 3.15904e-05
Heightened Def Con from 3.16225e-05 to 3.16255e-05
Heightened Def Con from 3.16612e-05 to 3.16623e-05
Heightened Def Con from 3.16625e-05 to 3.16655e-05
Heightened Def Con from 3.17128e-05 to 3.17158e-05
Heightened Def Con from 3.17563e-05 to 3.17593e-05
Heightened Def Con from 3.17826e-05 to 3.17836e-05
Heightened Def Con from 3.17865e-05 to 3.17877e-05
Heightened Def Con from 3.18239e-05 to 3.18269e-05
Heightened Def Con from 3.18508e-05 to 3.1852e-05
Heightened Def Con from 3.18534e-05 to 3.18564e-05
Heightened Def Con from 3.19075e-05 to 3.19105e-05
Heightened Def Con from 3.19179e-05 to 3.19209e-05
Heightened Def Con from 3.19366e-05 to 3.19387e-05
Heightened Def Con from 3.19672e-05 to 3.19682e-05
Heightened Def Con from 3.19706e-05 to 3.19727e-05
Heightened Def Con from 3.20071e-05 to 3.20101e-05
Heightened Def Con from 3.20171e-05 to 3.20201e-05
Heightened Def Con from 3.20218e-05 +to 3.20259e-05
Heightened Def Con from 3.20478e-05 +to 3.20528e-05
Heightened Def Con from 3.20932e-05 to 3.20944e-05
Heightened Def Con from 3.21174e-05 to 3.21204e-05
Heightened Def Con from 3.21493e-05 to 3.21523e-05
Heightened Def Con from 3.21759e-05 to 3.2177e-05
Heightened Def Con from 3.21798e-05 to 3.21828e-05
Heightened Def Con from 3.22168e-05 to 3.22198e-05
Heightened Def Con from 3.22417e-05 +to 3.22448e-05
Heightened Def Con from 3.22691e-05 to 3.22702e-05
Heightened Def Con from 3.23081e-05 to 3.23092e-05
Heightened Def Con from 3.23109e-05 to 3.23139e-05
Heightened Def Con from 3.23244e-05 to 3.23265e-05
Heightened Def Con from 3.23299e-05 to 3.23311e-05
Heightened Def Con from 3.23332e-05 +to 3.23382e-05
Heightened Def Con from 3.23733e-05 to 3.23734e-05
Heightened Def Con from 3.23737e-05 to 3.23767e-05
Heightened Def Con from 3.53223e-05 to 3.53253e-05
Heightened Def Con from 3.55288e-05 to 3.55318e-05
Heightened Def Con from 3.55387e-05 to 3.55417e-05
Heightened Def Con from 3.55815e-05 to 3.55826e-05
Heightened Def Con from 3.55855e-05 to 3.55866e-05
Heightened Def Con from 3.55881e-05 to 3.55891e-05
Heightened Def Con from 3.55922e-05 +to 3.55962e-05
Heightened Def Con from 3.56306e-05 to 3.56317e-05
Heightened Def Con from 3.5646e-05 to 3.5649e-05
Heightened Def Con from 3.56585e-05 to 3.56615e-05
Heightened Def Con from 3.57016e-05 to 3.57026e-05
Heightened Def Con from 3.57419e-05 to 3.57431e-05
Heightened Def Con from 3.57642e-05 +to 3.57692e-05
Heightened Def Con from 3.57879e-05 to 3.57891e-05
Heightened Def Con from 3.58163e-05 to 3.58174e-05
Heightened Def Con from 3.58425e-05 to 3.58455e-05
Heightened Def Con from 3.59019e-05 +to 3.59069e-05
Heightened Def Con from 3.59414e-05 to 3.59444e-05
Heightened Def Con from 3.59812e-05 to 3.59842e-05
Heightened Def Con from 3.60062e-05 +to 3.60112e-05
Heightened Def Con from 3.60167e-05 to 3.60197e-05
Heightened Def Con from 3.60696e-05 to 3.60706e-05
Heightened Def Con from 3.60706e-05 to 3.60736e-05
Heightened Def Con from 3.60771e-05 to 3.60792e-05
Heightened Def Con from 3.61094e-05 +to 3.61125e-05
Heightened Def Con from 3.61345e-05 to 3.61346e-05
Heightened Def Con from 3.61371e-05 to 3.61401e-05
Heightened Def Con from 3.61632e-05 to 3.61662e-05
Heightened Def Con from 3.61757e-05 +to 3.61807e-05
Heightened Def Con from 3.62022e-05 to 3.62052e-05
Heightened Def Con from 3.62442e-05 to 3.62472e-05
Heightened Def Con from 3.62714e-05 +to 3.62745e-05
Heightened Def Con from 3.62766e-05 to 3.62787e-05
Heightened Def Con from 3.63038e-05 +to 3.63088e-05
Heightened Def Con from 3.63434e-05 to 3.63464e-05
Heightened Def Con from 3.63682e-05 to 3.63712e-05
Heightened Def Con from 3.63855e-05 to 3.63866e-05
Heightened Def Con from 3.64083e-05 to 3.64113e-05
Heightened Def Con from 3.64236e-05 ++to 3.64316e-05
Heightened Def Con from 3.64932e-05 to 3.64933e-05
Heightened Def Con from 3.65098e-05 to 3.65109e-05
Heightened Def Con from 3.65135e-05 to 3.65165e-05
Heightened Def Con from 3.65394e-05 to 3.65405e-05
Heightened Def Con from 3.65426e-05 to 3.65447e-05
Heightened Def Con from 3.65675e-05 to 3.65695e-05
Heightened Def Con from 3.6571e-05 to 3.6572e-05
Heightened Def Con from 3.65928e-05 to 3.6594e-05
Heightened Def Con from 3.66185e-05 to 3.66196e-05
Heightened Def Con from 3.66223e-05 to 3.66235e-05
Heightened Def Con from 3.66253e-05 to 3.66264e-05
Heightened Def Con from 3.66268e-05 to 3.66288e-05
Heightened Def Con from 3.66288e-05 to 3.66318e-05
Heightened Def Con from 3.66318e-05 +to 3.66368e-05
Heightened Def Con from 3.66966e-05 to 3.66996e-05
Heightened Def Con from 3.67201e-05 to 3.67212e-05
Heightened Def Con from 3.67447e-05 to 3.67477e-05
Heightened Def Con from 3.67712e-05 to 3.67732e-05
Heightened Def Con from 3.67747e-05 to 3.67758e-05
Heightened Def Con from 3.67977e-05 +to 3.68009e-05
Heightened Def Con from 3.68029e-05 to 3.68039e-05
Heightened Def Con from 3.6804e-05 +to 3.68071e-05
Heightened Def Con from 3.6856e-05 to 3.6859e-05
Heightened Def Con from 3.69011e-05 ++to 3.69091e-05
Heightened Def Con from 3.69307e-05 +to 3.69349e-05
Heightened Def Con from 3.69896e-05 to 3.69907e-05
Heightened Def Con from 3.69926e-05 to 3.69956e-05
Heightened Def Con from 3.70016e-05 to 3.70046e-05
Heightened Def Con from 3.70144e-05 to 3.70174e-05
Heightened Def Con from 3.70216e-05 to 3.70246e-05
Heightened Def Con from 3.70478e-05 to 3.70508e-05
Heightened Def Con from 3.7074e-05 to 3.7077e-05
Heightened Def Con from 3.71002e-05 to 3.71014e-05
Heightened Def Con from 3.71047e-05 to 3.71067e-05
Heightened Def Con from 3.71657e-05 to 3.71687e-05
Heightened Def Con from 3.71822e-05 to 3.71833e-05
Heightened Def Con from 3.72067e-05 to 3.72078e-05
Heightened Def Con from 3.72098e-05 to 3.72109e-05
Heightened Def Con from 3.72124e-05 to 3.72136e-05
Heightened Def Con from 3.72148e-05 +to 3.72169e-05
Heightened Def Con from 3.72522e-05 to 3.72534e-05
Heightened Def Con from 3.72544e-05 to 3.72555e-05
Heightened Def Con from 3.72617e-05 to 3.72647e-05
Heightened Def Con from 3.72897e-05 to 3.72927e-05
Heightened Def Con from 3.73162e-05 +to 3.73194e-05
Heightened Def Con from 3.73259e-05 to 3.73271e-05
Heightened Def Con from 3.73563e-05 to 3.73573e-05
Heightened Def Con from 3.7358e-05 +to 3.73621e-05
Heightened Def Con from 3.73844e-05 to 3.73856e-05
Heightened Def Con from 3.73881e-05 to 3.73893e-05
Heightened Def Con from 4.05591e-05 to 4.05601e-05
Heightened Def Con from 4.05631e-05 to 4.05641e-05
Heightened Def Con from 4.05823e-05 to 4.05844e-05
Heightened Def Con from 4.06366e-05 to 4.06387e-05
Heightened Def Con from 4.0659e-05 to 4.0662e-05
Heightened Def Con from 4.06985e-05 to 4.06996e-05
Heightened Def Con from 4.07472e-05 to 4.07483e-05
Heightened Def Con from 4.07711e-05 to 4.07732e-05
Heightened Def Con from 4.08076e-05 to 4.08087e-05
Heightened Def Con from 4.08501e-05 to 4.08511e-05
Heightened Def Con from 4.08949e-05 to 4.08959e-05
Heightened Def Con from 4.09166e-05 to 4.09187e-05
Heightened Def Con from 4.09425e-05 to 4.09455e-05
Heightened Def Con from 4.09639e-05 +to 4.09689e-05
Heightened Def Con from 4.10082e-05 +to 4.10113e-05
Heightened Def Con from 4.10457e-05 to 4.10487e-05
Heightened Def Con from 4.10651e-05 to 4.10681e-05
Heightened Def Con from 4.10816e-05 to 4.10828e-05
Heightened Def Con from 4.11027e-05 to 4.11048e-05
Heightened Def Con from 4.1117e-05 to 4.112e-05
Heightened Def Con from 4.11579e-05 ++to 4.11651e-05
Heightened Def Con from 4.11989e-05 to 4.12019e-05
Heightened Def Con from 4.1209e-05 to 4.1212e-05
Heightened Def Con from 4.12159e-05 to 4.12189e-05
Heightened Def Con from 4.12881e-05 to 4.12891e-05
Heightened Def Con from 4.12912e-05 to 4.12933e-05
Heightened Def Con from 4.13177e-05 to 4.13207e-05
Heightened Def Con from 4.1345e-05 to 4.13461e-05
Heightened Def Con from 4.13622e-05 to 4.13652e-05
Heightened Def Con from 4.13878e-05 to 4.13888e-05
Heightened Def Con from 4.14125e-05 to 4.14155e-05
Heightened Def Con from 4.14395e-05 +to 4.14426e-05
Heightened Def Con from 4.14445e-05 to 4.14475e-05
Heightened Def Con from 4.14945e-05 to 4.14956e-05
Heightened Def Con from 4.14976e-05 to 4.14997e-05
Heightened Def Con from 4.15231e-05 +to 4.15263e-05
Heightened Def Con from 4.15279e-05 to 4.15309e-05
Heightened Def Con from 4.15552e-05 to 4.15562e-05
Heightened Def Con from 4.15844e-05 to 4.15855e-05
Heightened Def Con from 4.15875e-05 to 4.15885e-05
Heightened Def Con from 4.15886e-05 to 4.15907e-05
Heightened Def Con from 4.1615e-05 to 4.1616e-05
Heightened Def Con from 4.16185e-05 to 4.16206e-05
Heightened Def Con from 4.1643e-05 to 4.16441e-05
Heightened Def Con from 4.16588e-05 +to 4.16638e-05
Heightened Def Con from 4.17255e-05 to 4.17285e-05
Heightened Def Con from 4.17617e-05 to 4.17647e-05
Heightened Def Con from 4.17774e-05 to 4.17804e-05
Heightened Def Con from 4.17857e-05 +to 4.17887e-05
Heightened Def Con from 4.18208e-05 to 4.1822e-05
Heightened Def Con from 4.18224e-05 to 4.18236e-05
Heightened Def Con from 4.18428e-05 to 4.18449e-05
Heightened Def Con from 4.18796e-05 to 4.18807e-05
Heightened Def Con from 4.18824e-05 to 4.18827e-05
Heightened Def Con from 4.18827e-05 to 4.18839e-05
Heightened Def Con from 4.1934e-05 to 4.19351e-05
Heightened Def Con from 4.19371e-05 +to 4.19402e-05
Heightened Def Con from 4.19419e-05 to 4.19449e-05
Heightened Def Con from 4.19784e-05 to 4.19814e-05
Heightened Def Con from 4.20015e-05 ++to 4.20076e-05
Heightened Def Con from 4.20477e-05 to 4.20507e-05
Heightened Def Con from 4.20749e-05 to 4.20779e-05
Heightened Def Con from 4.21166e-05 to 4.21196e-05
Heightened Def Con from 4.2143e-05 to 4.21442e-05
Heightened Def Con from 4.21467e-05 to 4.21497e-05
Heightened Def Con from 4.2173e-05 to 4.2175e-05
Heightened Def Con from 4.21751e-05 +to 4.21801e-05
Heightened Def Con from 4.22354e-05 +++to 4.22435e-05
Heightened Def Con from 4.22648e-05 +to 4.22679e-05
Heightened Def Con from 4.23185e-05 to 4.23195e-05
Heightened Def Con from 4.23246e-05 to 4.23257e-05
Heightened Def Con from 4.23407e-05 +to 4.23447e-05
Heightened Def Con from 4.2389e-05 ++to 4.2397e-05
Heightened Def Con from 4.52194e-05 to 4.52224e-05
Heightened Def Con from 4.55275e-05 to 4.55305e-05
Heightened Def Con from 4.57273e-05 to 4.57284e-05
Heightened Def Con from 4.57307e-05 to 4.57337e-05
Heightened Def Con from 4.57555e-05 to 4.57585e-05
Heightened Def Con from 4.57988e-05 to 4.57999e-05
Heightened Def Con from 4.58019e-05 to 4.58049e-05
Heightened Def Con from 4.5827e-05 +to 4.5832e-05
Heightened Def Con from 4.58354e-05 +to 4.58396e-05
Heightened Def Con from 4.58506e-05 to 4.58516e-05
Heightened Def Con from 4.58666e-05 to 4.58687e-05
Heightened Def Con from 4.58708e-05 to 4.58719e-05
Heightened Def Con from 4.59422e-05 to 4.59452e-05
Heightened Def Con from 4.59685e-05 to 4.59705e-05
Heightened Def Con from 4.59941e-05 to 4.59971e-05
Heightened Def Con from 4.60219e-05 to 4.6023e-05
Heightened Def Con from 4.60253e-05 to 4.60283e-05
Heightened Def Con from 4.60396e-05 to 4.60426e-05
Heightened Def Con from 4.60697e-05 to 4.60727e-05
Heightened Def Con from 4.61002e-05 to 4.61032e-05
Heightened Def Con from 4.61392e-05 to 4.61422e-05
Heightened Def Con from 4.61639e-05 to 4.6166e-05
Heightened Def Con from 4.61688e-05 to 4.61698e-05
Heightened Def Con from 4.61698e-05 to 4.61728e-05
Heightened Def Con from 4.61734e-05 to 4.61745e-05
Heightened Def Con from 4.62073e-05 +to 4.62123e-05
Heightened Def Con from 4.62468e-05 to 4.62498e-05
Heightened Def Con from 4.62513e-05 to 4.62525e-05
Heightened Def Con from 4.62527e-05 to 4.62538e-05
Heightened Def Con from 4.62778e-05 to 4.62799e-05
Heightened Def Con from 4.63058e-05 to 4.6307e-05
Heightened Def Con from 4.63094e-05 to 4.63105e-05
Heightened Def Con from 4.63309e-05 +to 4.63359e-05
Heightened Def Con from 4.63585e-05 ++to 4.63665e-05
Heightened Def Con from 4.64473e-05 to 4.64503e-05
Heightened Def Con from 4.64751e-05 +to 4.64783e-05
Heightened Def Con from 4.64918e-05 to 4.64948e-05
Heightened Def Con from 4.64996e-05 to 4.65026e-05
Heightened Def Con from 4.65253e-05 to 4.65264e-05
Heightened Def Con from 4.6564e-05 to 4.6567e-05
Heightened Def Con from 4.65875e-05 to 4.65887e-05
Heightened Def Con from 4.65908e-05 to 4.65938e-05
Heightened Def Con from 4.66248e-05 to 4.66278e-05
Heightened Def Con from 4.66629e-05 +to 4.66679e-05
Heightened Def Con from 4.67154e-05 +to 4.67204e-05
Heightened Def Con from 4.6755e-05 to 4.67562e-05
Heightened Def Con from 4.67582e-05 to 4.67612e-05
Heightened Def Con from 4.67782e-05 to 4.67793e-05
Heightened Def Con from 4.67958e-05 to 4.67988e-05
Heightened Def Con from 4.68123e-05 to 4.68153e-05
Heightened Def Con from 4.68398e-05 to 4.68428e-05
Heightened Def Con from 4.68658e-05 to 4.6867e-05
Heightened Def Con from 4.68695e-05 to 4.68706e-05
Heightened Def Con from 4.68973e-05 to 4.68983e-05
Heightened Def Con from 4.69464e-05 to 4.69494e-05
Heightened Def Con from 4.69728e-05 to 4.69758e-05
Heightened Def Con from 4.6984e-05 to 4.69851e-05
Heightened Def Con from 4.70217e-05 to 4.70227e-05
Heightened Def Con from 4.70227e-05 to 4.70257e-05
Heightened Def Con from 4.7049e-05 to 4.70501e-05
Heightened Def Con from 4.70521e-05 to 4.70551e-05
Heightened Def Con from 4.70675e-05 to 4.70705e-05
Heightened Def Con from 4.70871e-05 +to 4.70921e-05
Heightened Def Con from 4.71143e-05 to 4.71154e-05
Heightened Def Con from 4.71183e-05 to 4.71213e-05
Heightened Def Con from 4.71706e-05 to 4.71736e-05
Heightened Def Con from 4.72158e-05 to 4.72169e-05
Heightened Def Con from 4.7217e-05 to 4.72191e-05
Heightened Def Con from 4.72413e-05 to 4.72443e-05
Heightened Def Con from 4.72671e-05 to 4.72681e-05
Heightened Def Con from 4.72919e-05 to 4.72949e-05
Heightened Def Con from 4.73196e-05 to 4.73207e-05
Heightened Def Con from 4.73234e-05 +to 4.73284e-05
Heightened Def Con from 4.7363e-05 to 4.7366e-05
Heightened Def Con from 4.73671e-05 to 4.73701e-05
Heightened Def Con from 4.73973e-05 to 4.74073e-05
Heightened Def Con from 5.01327e-05 to 5.01357e-05
Heightened Def Con from 5.06601e-05 +to 5.06633e-05
Heightened Def Con from 5.07024e-05 to 5.07054e-05
Heightened Def Con from 5.07501e-05 +to 5.07551e-05
Heightened Def Con from 5.07582e-05 to 5.07604e-05
Heightened Def Con from 5.07659e-05 to 5.0767e-05
Heightened Def Con from 5.08224e-05 to 5.08236e-05
Heightened Def Con from 5.08459e-05 to 5.0847e-05
Heightened Def Con from 5.08689e-05 to 5.08699e-05
Heightened Def Con from 5.08987e-05 to 5.09008e-05
Heightened Def Con from 5.09373e-05 to 5.09393e-05
Heightened Def Con from 5.0941e-05 +to 5.0946e-05
Heightened Def Con from 5.09681e-05 to 5.09693e-05
Heightened Def Con from 5.1006e-05 to 5.10071e-05
Heightened Def Con from 5.10097e-05 +to 5.10129e-05
Heightened Def Con from 5.10406e-05 to 5.10436e-05
Heightened Def Con from 5.10549e-05 to 5.10579e-05
Heightened Def Con from 5.10838e-05 to 5.10868e-05
Heightened Def Con from 5.11082e-05 +to 5.11123e-05
Heightened Def Con from 5.11439e-05 to 5.11469e-05
Heightened Def Con from 5.1203e-05 to 5.1204e-05
Heightened Def Con from 5.12063e-05 to 5.12075e-05
Heightened Def Con from 5.12358e-05 to 5.12368e-05
Heightened Def Con from 5.12389e-05 to 5.12419e-05
Heightened Def Con from 5.12642e-05 +to 5.12692e-05
Heightened Def Con from 5.12917e-05 ++to 5.12968e-05
Heightened Def Con from 5.13466e-05 to 5.13477e-05
Heightened Def Con from 5.13497e-05 to 5.13508e-05
Heightened Def Con from 5.13526e-05 to 5.13556e-05
Heightened Def Con from 5.13979e-05 ++to 5.1403e-05
Heightened Def Con from 5.1437e-05 to 5.14392e-05
Heightened Def Con from 5.14597e-05 +to 5.14628e-05
Heightened Def Con from 5.15172e-05 to 5.15202e-05
Heightened Def Con from 5.15336e-05 to 5.15346e-05
Heightened Def Con from 5.15346e-05 to 5.15366e-05
Heightened Def Con from 5.15453e-05 to 5.15464e-05
Heightened Def Con from 5.15796e-05 to 5.15808e-05
Heightened Def Con from 5.15827e-05 to 5.15857e-05
Heightened Def Con from 5.16088e-05 to 5.16118e-05
Heightened Def Con from 5.1632e-05 to 5.16331e-05
Heightened Def Con from 5.16381e-05 to 5.16411e-05
Heightened Def Con from 5.16425e-05 to 5.16437e-05
Heightened Def Con from 5.16443e-05 ++to 5.16484e-05
Heightened Def Con from 5.16876e-05 to 5.16877e-05
Heightened Def Con from 5.16889e-05 to 5.1691e-05
Heightened Def Con from 5.16925e-05 to 5.16955e-05
Heightened Def Con from 5.17214e-05 to 5.17244e-05
Heightened Def Con from 5.17477e-05 to 5.17507e-05
Heightened Def Con from 5.17756e-05 to 5.17777e-05
Heightened Def Con from 5.18001e-05 to 5.18023e-05
Heightened Def Con from 5.18475e-05 to 5.18505e-05
Heightened Def Con from 5.18839e-05 to 5.18869e-05
Heightened Def Con from 5.1914e-05 to 5.19151e-05
Heightened Def Con from 5.19413e-05 to 5.19425e-05
Heightened Def Con from 5.19447e-05 +to 5.19497e-05
Heightened Def Con from 5.19702e-05 to 5.19712e-05
Heightened Def Con from 5.19712e-05 to 5.19723e-05
Heightened Def Con from 5.20102e-05 to 5.20123e-05
Heightened Def Con from 5.20246e-05 to 5.20257e-05
Heightened Def Con from 5.20418e-05 to 5.2043e-05
Heightened Def Con from 5.20456e-05 ++to 5.20517e-05
Heightened Def Con from 5.21141e-05 +to 5.21191e-05
Heightened Def Con from 5.21415e-05 to 5.21445e-05
Heightened Def Con from 5.21592e-05 to 5.21622e-05
Heightened Def Con from 5.21787e-05 to 5.21798e-05
Heightened Def Con from 5.22047e-05 to 5.22058e-05
Heightened Def Con from 5.22272e-05 to 5.22302e-05
Heightened Def Con from 5.22547e-05 to 5.22558e-05
Heightened Def Con from 5.22585e-05 to 5.22596e-05
Heightened Def Con from 5.22952e-05 to 5.22963e-05
Heightened Def Con from 5.2298e-05 ++to 5.23031e-05
Heightened Def Con from 5.23252e-05 to 5.23282e-05
Heightened Def Con from 5.23656e-05 to 5.23657e-05
Heightened Def Con from 5.23675e-05 +to 5.23707e-05
Heightened Def Con from 5.51307e-05 to 5.51337e-05
Heightened Def Con from 5.52586e-05 to 5.52616e-05
Heightened Def Con from 5.5531e-05 to 5.55332e-05
Heightened Def Con from 5.55529e-05 to 5.55541e-05
Heightened Def Con from 5.55725e-05 to 5.55755e-05
Heightened Def Con from 5.56125e-05 to 5.56136e-05
Heightened Def Con from 5.56501e-05 to 5.56511e-05
Heightened Def Con from 5.56534e-05 to 5.56564e-05
Heightened Def Con from 5.56656e-05 to 5.56668e-05
Heightened Def Con from 5.56827e-05 to 5.56857e-05
Heightened Def Con from 5.57075e-05 to 5.57105e-05
Heightened Def Con from 5.57744e-05 +to 5.57775e-05
Heightened Def Con from 5.58125e-05 +to 5.58157e-05
Heightened Def Con from 5.58511e-05 to 5.58541e-05
Heightened Def Con from 5.58857e-05 to 5.58879e-05
Heightened Def Con from 5.5893e-05 to 5.58934e-05
Heightened Def Con from 5.58936e-05 to 5.58946e-05
Heightened Def Con from 5.58959e-05 to 5.5898e-05
Heightened Def Con from 5.58995e-05 to 5.59006e-05
Heightened Def Con from 5.59022e-05 to 5.59032e-05
Heightened Def Con from 5.59032e-05 +to 5.59054e-05
Heightened Def Con from 5.59368e-05 +to 5.59399e-05
Heightened Def Con from 5.59423e-05 to 5.59434e-05
Heightened Def Con from 5.59633e-05 to 5.59663e-05
Heightened Def Con from 5.59891e-05 to 5.59921e-05
Heightened Def Con from 5.59947e-05 to 5.59977e-05
Heightened Def Con from 5.60817e-05 to 5.60827e-05
Heightened Def Con from 5.61058e-05 to 5.61088e-05
Heightened Def Con from 5.61305e-05 to 5.61315e-05
Heightened Def Con from 5.61331e-05 to 5.61341e-05
Heightened Def Con from 5.61365e-05 to 5.61395e-05
Heightened Def Con from 5.61971e-05 to 5.61982e-05
Heightened Def Con from 5.62003e-05 to 5.62033e-05
Heightened Def Con from 5.62309e-05 to 5.62339e-05
Heightened Def Con from 5.62581e-05 +to 5.62631e-05
Heightened Def Con from 5.62759e-05 to 5.62781e-05
Heightened Def Con from 5.63163e-05 to 5.63174e-05
Heightened Def Con from 5.63193e-05 to 5.63223e-05
Heightened Def Con from 5.6343e-05 to 5.6344e-05
Heightened Def Con from 5.63833e-05 to 5.63844e-05
Heightened Def Con from 5.63864e-05 to 5.63894e-05
Heightened Def Con from 5.64099e-05 to 5.64109e-05
Heightened Def Con from 5.64126e-05 to 5.64136e-05
Heightened Def Con from 5.64629e-05 to 5.64639e-05
Heightened Def Con from 5.64861e-05 to 5.64891e-05
Heightened Def Con from 5.65025e-05 to 5.65055e-05
Heightened Def Con from 5.65088e-05 ++to 5.6516e-05
Heightened Def Con from 5.65844e-05 to 5.65856e-05
Heightened Def Con from 5.65902e-05 to 5.65932e-05
Heightened Def Con from 5.66143e-05 to 5.66154e-05
Heightened Def Con from 5.66174e-05 to 5.66194e-05
Heightened Def Con from 5.66599e-05 to 5.6661e-05
Heightened Def Con from 5.66632e-05 to 5.66644e-05
Heightened Def Con from 5.66661e-05 to 5.66691e-05
Heightened Def Con from 5.66897e-05 +to 5.66947e-05
Heightened Def Con from 5.66978e-05 to 5.67008e-05
Heightened Def Con from 5.67303e-05 to 5.67333e-05
Heightened Def Con from 5.67333e-05 to 5.67333e-05
Heightened Def Con from 5.67336e-05 to 5.67356e-05
Heightened Def Con from 5.67357e-05 to 5.67387e-05
Heightened Def Con from 5.68016e-05 to 5.68037e-05
Heightened Def Con from 5.68312e-05 to 5.68342e-05
Heightened Def Con from 5.68604e-05 to 5.68634e-05
Heightened Def Con from 5.68762e-05 +to 5.68793e-05
Heightened Def Con from 5.69032e-05 to 5.69043e-05
Heightened Def Con from 5.69396e-05 to 5.69407e-05
Heightened Def Con from 5.6941e-05 to 5.6944e-05
Heightened Def Con from 5.69479e-05 +to 5.69509e-05
Heightened Def Con from 5.69509e-05 to 5.6952e-05
Heightened Def Con from 5.70124e-05 to 5.70136e-05
Heightened Def Con from 5.70155e-05 to 5.70166e-05
Heightened Def Con from 5.70182e-05 to 5.70193e-05
Heightened Def Con from 5.70193e-05 +to 5.70243e-05
Heightened Def Con from 5.70857e-05 to 5.70868e-05
Heightened Def Con from 5.70985e-05 to 5.71005e-05
Heightened Def Con from 5.71035e-05 +to 5.71066e-05
Heightened Def Con from 5.71083e-05 to 5.71104e-05
Heightened Def Con from 5.71288e-05 to 5.71318e-05
Heightened Def Con from 5.71891e-05 to 5.71921e-05
Heightened Def Con from 5.72161e-05 to 5.72191e-05
Heightened Def Con from 5.72727e-05 ++to 5.72807e-05
Heightened Def Con from 5.73229e-05 to 5.73259e-05
Heightened Def Con from 5.73577e-05 to 5.73607e-05
Heightened Def Con from 5.73744e-05 to 5.73755e-05
Heightened Def Con from 5.73771e-05 to 5.73801e-05
Heightened Def Con from 6.05494e-05 to 6.05515e-05
Heightened Def Con from 6.0589e-05 to 6.0592e-05
Heightened Def Con from 6.06318e-05 to 6.06339e-05
Heightened Def Con from 6.06541e-05 to 6.06571e-05
Heightened Def Con from 6.0678e-05 to 6.0681e-05
Heightened Def Con from 6.07014e-05 to 6.07044e-05
Heightened Def Con from 6.07194e-05 to 6.07224e-05
Heightened Def Con from 6.07433e-05 to 6.07463e-05
Heightened Def Con from 6.07669e-05 to 6.07699e-05
Heightened Def Con from 6.08075e-05 to 6.08086e-05
Heightened Def Con from 6.08322e-05 to 6.08333e-05
Heightened Def Con from 6.08563e-05 +to 6.08594e-05
Heightened Def Con from 6.08825e-05 to 6.08836e-05
Heightened Def Con from 6.09219e-05 to 6.09239e-05
Heightened Def Con from 6.09256e-05 to 6.09266e-05
Heightened Def Con from 6.09279e-05 to 6.09309e-05
Heightened Def Con from 6.09532e-05 +to 6.09574e-05
Heightened Def Con from 6.09913e-05 to 6.09943e-05
Heightened Def Con from 6.10204e-05 to 6.10214e-05
Heightened Def Con from 6.10236e-05 to 6.10247e-05
Heightened Def Con from 6.10341e-05 to 6.10371e-05
Heightened Def Con from 6.10611e-05 to 6.10621e-05
Heightened Def Con from 6.10797e-05 to 6.10809e-05
Heightened Def Con from 6.10922e-05 to 6.10952e-05
Heightened Def Con from 6.11213e-05 to 6.11224e-05
Heightened Def Con from 6.11243e-05 to 6.11273e-05
Heightened Def Con from 6.11632e-05 to 6.11662e-05
Heightened Def Con from 6.11692e-05 to 6.11722e-05
Heightened Def Con from 6.11722e-05 +to 6.11754e-05
Heightened Def Con from 6.12087e-05 +to 6.12119e-05
Heightened Def Con from 6.12333e-05 to 6.12363e-05
Heightened Def Con from 6.12401e-05 +to 6.12432e-05
Heightened Def Con from 6.12657e-05 to 6.12668e-05
Heightened Def Con from 6.12689e-05 to 6.12719e-05
Heightened Def Con from 6.12773e-05 to 6.12794e-05
Heightened Def Con from 6.13002e-05 +to 6.13043e-05
Heightened Def Con from 6.13263e-05 to 6.13293e-05
Heightened Def Con from 6.13646e-05 to 6.13676e-05
Heightened Def Con from 6.13895e-05 to 6.13925e-05
Heightened Def Con from 6.14131e-05 to 6.14142e-05
Heightened Def Con from 6.14162e-05 to 6.14183e-05
Heightened Def Con from 6.14433e-05 to 6.14443e-05
Heightened Def Con from 6.14464e-05 to 6.14494e-05
Heightened Def Con from 6.14507e-05 to 6.14518e-05
Heightened Def Con from 6.15007e-05 to 6.15037e-05
Heightened Def Con from 6.15171e-05 to 6.15172e-05
Heightened Def Con from 6.15184e-05 to 6.15185e-05
Heightened Def Con from 6.15185e-05 to 6.15215e-05
Heightened Def Con from 6.15237e-05 to 6.15248e-05
Heightened Def Con from 6.15251e-05 to 6.15262e-05
Heightened Def Con from 6.15343e-05 to 6.15353e-05
Heightened Def Con from 6.15533e-05 to 6.15563e-05
Heightened Def Con from 6.15691e-05 to 6.15721e-05
Heightened Def Con from 6.1596e-05 to 6.1599e-05
Heightened Def Con from 6.16384e-05 to 6.16414e-05
Heightened Def Con from 6.16653e-05 to 6.16664e-05
Heightened Def Con from 6.1669e-05 to 6.16701e-05
Heightened Def Con from 6.17149e-05 +to 6.1719e-05
Heightened Def Con from 6.17546e-05 to 6.17576e-05
Heightened Def Con from 6.17694e-05 to 6.17724e-05
Heightened Def Con from 6.18005e-05 to 6.18035e-05
Heightened Def Con from 6.18127e-05 ++to 6.18178e-05
Heightened Def Con from 6.18399e-05 to 6.18429e-05
Heightened Def Con from 6.18669e-05 to 6.18699e-05
Heightened Def Con from 6.1918e-05 to 6.19201e-05
Heightened Def Con from 6.19474e-05 to 6.19496e-05
Heightened Def Con from 6.19846e-05 to 6.19876e-05
Heightened Def Con from 6.20079e-05 to 6.2009e-05
Heightened Def Con from 6.20109e-05 to 6.2012e-05
Heightened Def Con from 6.20346e-05 +to 6.20387e-05
Heightened Def Con from 6.20877e-05 +to 6.20908e-05
Heightened Def Con from 6.21145e-05 +to 6.21195e-05
Heightened Def Con from 6.21259e-05 +to 6.2128e-05
Heightened Def Con from 6.21332e-05 +to 6.21363e-05
Heightened Def Con from 6.21711e-05 to 6.21741e-05
Heightened Def Con from 6.21762e-05 to 6.21773e-05
Heightened Def Con from 6.21787e-05 to 6.21817e-05
Heightened Def Con from 6.2221e-05 to 6.22221e-05
Heightened Def Con from 6.22254e-05 +to 6.22295e-05
Heightened Def Con from 6.22909e-05 +to 6.2294e-05
Heightened Def Con from 6.23207e-05 to 6.23218e-05
Heightened Def Con from 6.23238e-05 +to 6.23288e-05
Heightened Def Con from 6.23613e-05 to 6.23624e-05
Heightened Def Con from 6.23954e-05 to 6.23965e-05
Heightened Def Con from 6.2398e-05 to 6.24011e-05
Heightened Def Con from 6.55422e-05 to 6.55452e-05
Heightened Def Con from 6.55873e-05 to 6.55883e-05
Heightened Def Con from 6.55905e-05 to 6.55935e-05
Heightened Def Con from 6.56078e-05 to 6.56108e-05
Heightened Def Con from 6.56552e-05 to 6.56563e-05
Heightened Def Con from 6.56751e-05 to 6.56781e-05
Heightened Def Con from 6.5719e-05 to 6.5722e-05
Heightened Def Con from 6.57433e-05 to 6.57444e-05
Heightened Def Con from 6.57768e-05 +to 6.57809e-05
Heightened Def Con from 6.58159e-05 to 6.58189e-05
Heightened Def Con from 6.58412e-05 to 6.58442e-05
Heightened Def Con from 6.58509e-05 to 6.5852e-05
Heightened Def Con from 6.58533e-05 to 6.58544e-05
Heightened Def Con from 6.58578e-05 to 6.58608e-05
Heightened Def Con from 6.58948e-05 +to 6.58998e-05
Heightened Def Con from 6.59085e-05 to 6.59096e-05
Heightened Def Con from 6.59353e-05 to 6.59383e-05
Heightened Def Con from 6.59432e-05 to 6.59462e-05
Heightened Def Con from 6.59678e-05 to 6.59708e-05
Heightened Def Con from 6.59944e-05 to 6.59974e-05
Heightened Def Con from 6.6021e-05 to 6.60231e-05
Heightened Def Con from 6.60561e-05 to 6.60591e-05
Heightened Def Con from 6.60714e-05 to 6.60724e-05
Heightened Def Con from 6.60724e-05 +to 6.60774e-05
Heightened Def Con from 6.61321e-05 to 6.61351e-05
Heightened Def Con from 6.6157e-05 +to 6.61601e-05
Heightened Def Con from 6.61949e-05 to 6.61979e-05
Heightened Def Con from 6.62097e-05 to 6.62108e-05
Heightened Def Con from 6.62276e-05 to 6.62286e-05
Heightened Def Con from 6.62302e-05 to 6.62332e-05
Heightened Def Con from 6.62639e-05 to 6.6265e-05
Heightened Def Con from 6.62677e-05 to 6.62707e-05
Heightened Def Con from 6.62861e-05 +to 6.62892e-05
Heightened Def Con from 6.63247e-05 +to 6.63297e-05
Heightened Def Con from 6.63527e-05 to 6.63537e-05
Heightened Def Con from 6.63568e-05 to 6.63598e-05
Heightened Def Con from 6.63827e-05 to 6.63857e-05
Heightened Def Con from 6.64533e-05 to 6.64543e-05
Heightened Def Con from 6.64544e-05 to 6.64574e-05
Heightened Def Con from 6.64587e-05 +to 6.64618e-05
Heightened Def Con from 6.64947e-05 to 6.64948e-05
Heightened Def Con from 6.64974e-05 +to 6.65024e-05
Heightened Def Con from 6.65061e-05 to 6.65082e-05
Heightened Def Con from 6.65307e-05 to 6.65337e-05
Heightened Def Con from 6.65407e-05 +to 6.65457e-05
Heightened Def Con from 6.65676e-05 to 6.65687e-05
Heightened Def Con from 6.65713e-05 to 6.65743e-05
Heightened Def Con from 6.65958e-05 to 6.65968e-05
Heightened Def Con from 6.66246e-05 to 6.66257e-05
Heightened Def Con from 6.66277e-05 to 6.66307e-05
Heightened Def Con from 6.66319e-05 to 6.6633e-05
Heightened Def Con from 6.6672e-05 to 6.66731e-05
Heightened Def Con from 6.66844e-05 to 6.66855e-05
Heightened Def Con from 6.66874e-05 to 6.66885e-05
Heightened Def Con from 6.67105e-05 to 6.67135e-05
Heightened Def Con from 6.6738e-05 +to 6.6743e-05
Heightened Def Con from 6.67445e-05 to 6.67475e-05
Heightened Def Con from 6.67674e-05 to 6.67695e-05
Heightened Def Con from 6.67852e-05 to 6.67882e-05
Heightened Def Con from 6.68136e-05 to 6.68166e-05
Heightened Def Con from 6.684e-05 to 6.68412e-05
Heightened Def Con from 6.68484e-05 to 6.68495e-05
Heightened Def Con from 6.68502e-05 +to 6.68533e-05
Heightened Def Con from 6.68892e-05 +to 6.68942e-05
Heightened Def Con from 6.69222e-05 to 6.69232e-05
Heightened Def Con from 6.69232e-05 to 6.69242e-05
Heightened Def Con from 6.69242e-05 to 6.69272e-05
Heightened Def Con from 6.69985e-05 to 6.70015e-05
Heightened Def Con from 6.70249e-05 to 6.70279e-05
Heightened Def Con from 6.70772e-05 to 6.70783e-05
Heightened Def Con from 6.70821e-05 ++to 6.70881e-05
Heightened Def Con from 6.71485e-05 to 6.71497e-05
Heightened Def Con from 6.71507e-05 to 6.71511e-05
Heightened Def Con from 6.71511e-05 to 6.71541e-05
Heightened Def Con from 6.71758e-05 to 6.71788e-05
Heightened Def Con from 6.72172e-05 to 6.72183e-05
Heightened Def Con from 6.722e-05 to 6.7223e-05
Heightened Def Con from 6.72359e-05 +to 6.72391e-05
Heightened Def Con from 6.72634e-05 to 6.72644e-05
Heightened Def Con from 6.72869e-05 to 6.72899e-05
Heightened Def Con from 6.73384e-05 to 6.73395e-05
Heightened Def Con from 6.73548e-05 to 6.73578e-05
Heightened Def Con from 6.73949e-05 to 6.73959e-05
Heightened Def Con from 6.7396e-05 to 6.73981e-05
Heightened Def Con from 6.73998e-05 to 6.74078e-05
Heightened Def Con from 7.01203e-05 to 7.01233e-05
Heightened Def Con from 7.05862e-05 to 7.05892e-05
Heightened Def Con from 7.06282e-05 to 7.06292e-05
Heightened Def Con from 7.06351e-05 to 7.06381e-05
Heightened Def Con from 7.06764e-05 to 7.06775e-05
Heightened Def Con from 7.06797e-05 to 7.06818e-05
Heightened Def Con from 7.07031e-05 to 7.07061e-05
Heightened Def Con from 7.07293e-05 ++to 7.07373e-05
Heightened Def Con from 7.08123e-05 to 7.08134e-05
Heightened Def Con from 7.09022e-05 to 7.09032e-05
Heightened Def Con from 7.09059e-05 to 7.0908e-05
Heightened Def Con from 7.09164e-05 to 7.09185e-05
Heightened Def Con from 7.0933e-05 to 7.0936e-05
Heightened Def Con from 7.09608e-05 to 7.09638e-05
Heightened Def Con from 7.0988e-05 to 7.09891e-05
Heightened Def Con from 7.1014e-05 to 7.1017e-05
Heightened Def Con from 7.10554e-05 to 7.10565e-05
Heightened Def Con from 7.10584e-05 to 7.10596e-05
Heightened Def Con from 7.10949e-05 to 7.1096e-05
Heightened Def Con from 7.10982e-05 to 7.11003e-05
Heightened Def Con from 7.11112e-05 to 7.11142e-05
Heightened Def Con from 7.11167e-05 to 7.11178e-05
Heightened Def Con from 7.11207e-05 ++to 7.11287e-05
Heightened Def Con from 7.1195e-05 to 7.1198e-05
Heightened Def Con from 7.12248e-05 to 7.12278e-05
Heightened Def Con from 7.1256e-05 to 7.1259e-05
Heightened Def Con from 7.12804e-05 +to 7.12835e-05
Heightened Def Con from 7.1325e-05 to 7.1328e-05
Heightened Def Con from 7.13525e-05 to 7.13536e-05
Heightened Def Con from 7.13563e-05 to 7.13593e-05
Heightened Def Con from 7.13896e-05 to 7.13926e-05
Heightened Def Con from 7.1397e-05 to 7.13982e-05
Heightened Def Con from 7.14486e-05 to 7.14496e-05
Heightened Def Con from 7.14519e-05 to 7.14539e-05
Heightened Def Con from 7.14552e-05 to 7.14573e-05
Heightened Def Con from 7.14824e-05 to 7.14854e-05
Heightened Def Con from 7.15011e-05 to 7.15041e-05
Heightened Def Con from 7.15196e-05 to 7.15206e-05
Heightened Def Con from 7.15206e-05 +to 7.15246e-05
Heightened Def Con from 7.15472e-05 to 7.15483e-05
Heightened Def Con from 7.15512e-05 +to 7.15543e-05
Heightened Def Con from 7.15747e-05 to 7.15758e-05
Heightened Def Con from 7.15777e-05 +++to 7.15877e-05
Heightened Def Con from 7.16778e-05 +to 7.16828e-05
Heightened Def Con from 7.17298e-05 to 7.17328e-05
Heightened Def Con from 7.17365e-05 to 7.17395e-05
Heightened Def Con from 7.17407e-05 to 7.17418e-05
Heightened Def Con from 7.17744e-05 to 7.17774e-05
Heightened Def Con from 7.17963e-05 to 7.17974e-05
Heightened Def Con from 7.18209e-05 to 7.18239e-05
Heightened Def Con from 7.18283e-05 to 7.18313e-05
Heightened Def Con from 7.18554e-05 +to 7.18586e-05
Heightened Def Con from 7.18935e-05 to 7.18956e-05
Heightened Def Con from 7.19257e-05 to 7.19268e-05
Heightened Def Con from 7.19283e-05 to 7.19294e-05
Heightened Def Con from 7.19619e-05 to 7.19649e-05
Heightened Def Con from 7.1986e-05 to 7.19871e-05
Heightened Def Con from 7.1989e-05 +to 7.1994e-05
Heightened Def Con from 7.20281e-05 to 7.20311e-05
Heightened Def Con from 7.20414e-05 to 7.20444e-05
Heightened Def Con from 7.20701e-05 to 7.20731e-05
Heightened Def Con from 7.21013e-05 to 7.21043e-05
Heightened Def Con from 7.21126e-05 to 7.21136e-05
Heightened Def Con from 7.21394e-05 to 7.21424e-05
Heightened Def Con from 7.21627e-05 to 7.21657e-05
Heightened Def Con from 7.22051e-05 to 7.22081e-05
Heightened Def Con from 7.22319e-05 +to 7.2234e-05
Heightened Def Con from 7.22678e-05 to 7.22688e-05
Heightened Def Con from 7.22693e-05 to 7.22723e-05
Heightened Def Con from 7.22959e-05 to 7.22989e-05
Heightened Def Con from 7.23359e-05 to 7.2338e-05
Heightened Def Con from 7.23617e-05 to 7.23628e-05
Heightened Def Con from 7.23843e-05 ++to 7.23923e-05
Heightened Def Con from 7.24036e-05 to 7.24076e-05
Heightened Def Con from 7.51812e-05 to 7.51842e-05
Heightened Def Con from 7.55548e-05 to 7.55578e-05
Heightened Def Con from 7.55678e-05 to 7.55708e-05
Heightened Def Con from 7.57252e-05 to 7.57262e-05
Heightened Def Con from 7.57286e-05 to 7.57316e-05
Heightened Def Con from 7.57539e-05 to 7.57549e-05
Heightened Def Con from 7.57755e-05 to 7.57785e-05
Heightened Def Con from 7.58065e-05 to 7.58095e-05
Heightened Def Con from 7.58312e-05 to 7.58323e-05
Heightened Def Con from 7.58697e-05 to 7.58727e-05
Heightened Def Con from 7.58831e-05 to 7.58843e-05
Heightened Def Con from 7.58857e-05 to 7.58887e-05
Heightened Def Con from 7.59112e-05 to 7.59132e-05
Heightened Def Con from 7.59185e-05 to 7.59195e-05
Heightened Def Con from 7.59195e-05 +to 7.59236e-05
Heightened Def Con from 7.59455e-05 to 7.59466e-05
Heightened Def Con from 7.59494e-05 to 7.59505e-05
Heightened Def Con from 7.59612e-05 to 7.59623e-05
Heightened Def Con from 7.59808e-05 to 7.59838e-05
Heightened Def Con from 7.60196e-05 +to 7.60246e-05
Heightened Def Con from 7.60318e-05 ++to 7.60398e-05
Heightened Def Con from 7.60881e-05 to 7.60911e-05
Heightened Def Con from 7.61146e-05 to 7.61167e-05
Heightened Def Con from 7.61399e-05 +to 7.61449e-05
Heightened Def Con from 7.62085e-05 to 7.62115e-05
Heightened Def Con from 7.62325e-05 to 7.62355e-05
Heightened Def Con from 7.62589e-05 to 7.62619e-05
Heightened Def Con from 7.63023e-05 to 7.63034e-05
Heightened Def Con from 7.63054e-05 to 7.63065e-05
Heightened Def Con from 7.63081e-05 to 7.63111e-05
Heightened Def Con from 7.63124e-05 to 7.63146e-05
Heightened Def Con from 7.63146e-05 +to 7.63167e-05
Heightened Def Con from 7.63506e-05 to 7.63536e-05
Heightened Def Con from 7.63788e-05 to 7.63798e-05
Heightened Def Con from 7.63822e-05 to 7.63852e-05
Heightened Def Con from 7.64059e-05 to 7.64089e-05
Heightened Def Con from 7.64308e-05 +to 7.64358e-05
Heightened Def Con from 7.64583e-05 to 7.64594e-05
Heightened Def Con from 7.64627e-05 to 7.64639e-05
Heightened Def Con from 7.6485e-05 to 7.6486e-05
Heightened Def Con from 7.64876e-05 to 7.64906e-05
Heightened Def Con from 7.65141e-05 to 7.65153e-05
Heightened Def Con from 7.6518e-05 to 7.6521e-05
Heightened Def Con from 7.65476e-05 to 7.65506e-05
Heightened Def Con from 7.65735e-05 +to 7.65785e-05
Heightened Def Con from 7.66141e-05 to 7.66171e-05
Heightened Def Con from 7.66367e-05 to 7.66397e-05
Heightened Def Con from 7.66527e-05 to 7.66549e-05
Heightened Def Con from 7.66583e-05 to 7.66613e-05
Heightened Def Con from 7.66991e-05 to 7.67012e-05
Heightened Def Con from 7.67232e-05 to 7.67262e-05
Heightened Def Con from 7.67496e-05 to 7.67507e-05
Heightened Def Con from 7.6753e-05 to 7.67541e-05
Heightened Def Con from 7.67557e-05 to 7.67587e-05
Heightened Def Con from 7.6778e-05 +to 7.6783e-05
Heightened Def Con from 7.67924e-05 to 7.67954e-05
Heightened Def Con from 7.68143e-05 to 7.68154e-05
Heightened Def Con from 7.68173e-05 +to 7.68205e-05
Heightened Def Con from 7.6847e-05 to 7.685e-05
Heightened Def Con from 7.69067e-05 to 7.69078e-05
Heightened Def Con from 7.69097e-05 to 7.69127e-05
Heightened Def Con from 7.69152e-05 to 7.69153e-05
Heightened Def Con from 7.69362e-05 to 7.69392e-05
Heightened Def Con from 7.6959e-05 to 7.69601e-05
Heightened Def Con from 7.69866e-05 to 7.69896e-05
Heightened Def Con from 7.70128e-05 to 7.70158e-05
Heightened Def Con from 7.70391e-05 to 7.70402e-05
Heightened Def Con from 7.7044e-05 ++to 7.7049e-05
Heightened Def Con from 7.70867e-05 +to 7.70907e-05
Heightened Def Con from 7.71127e-05 to 7.71157e-05
Heightened Def Con from 7.71296e-05 to 7.71326e-05
Heightened Def Con from 7.71475e-05 to 7.71485e-05
Heightened Def Con from 7.71486e-05 +to 7.71497e-05
Heightened Def Con from 7.71639e-05 to 7.71651e-05
Heightened Def Con from 7.71709e-05 to 7.7172e-05
Heightened Def Con from 7.71941e-05 to 7.71953e-05
Heightened Def Con from 7.72212e-05 to 7.72223e-05
Heightened Def Con from 7.72249e-05 to 7.72261e-05
Heightened Def Con from 7.72276e-05 to 7.72287e-05
Heightened Def Con from 7.72287e-05 ++to 7.72357e-05
Heightened Def Con from 7.72637e-05 to 7.72667e-05
Heightened Def Con from 7.7319e-05 to 7.7322e-05
Heightened Def Con from 7.73455e-05 to 7.73467e-05
Heightened Def Con from 7.73489e-05 to 7.73519e-05
Heightened Def Con from 7.7365e-05 to 7.73651e-05
Heightened Def Con from 7.73934e-05 to 7.73946e-05
Heightened Def Con from 7.73965e-05 +to 7.74036e-05
Heightened Def Con from 8.05713e-05 to 8.05743e-05
Heightened Def Con from 8.06228e-05 to 8.06258e-05
Heightened Def Con from 8.06694e-05 to 8.06705e-05
Heightened Def Con from 8.06729e-05 to 8.0674e-05
Heightened Def Con from 8.06761e-05 +to 8.06792e-05
Heightened Def Con from 8.06932e-05 +to 8.06982e-05
Heightened Def Con from 8.07212e-05 to 8.07223e-05
Heightened Def Con from 8.07702e-05 to 8.07732e-05
Heightened Def Con from 8.07949e-05 to 8.0796e-05
Heightened Def Con from 8.07983e-05 to 8.08005e-05
Heightened Def Con from 8.0822e-05 to 8.0825e-05
Heightened Def Con from 8.08488e-05 to 8.08518e-05
Heightened Def Con from 8.08612e-05 to 8.08623e-05
Heightened Def Con from 8.08623e-05 +to 8.08645e-05
Heightened Def Con from 8.08674e-05 to 8.08704e-05
Heightened Def Con from 8.08717e-05 to 8.08738e-05
Heightened Def Con from 8.08958e-05 to 8.08968e-05
Heightened Def Con from 8.09367e-05 to 8.09397e-05
Heightened Def Con from 8.09647e-05 to 8.09677e-05
Heightened Def Con from 8.09926e-05 +to 8.09957e-05
Heightened Def Con from 8.10188e-05 to 8.10209e-05
Heightened Def Con from 8.10531e-05 to 8.10561e-05
Heightened Def Con from 8.10926e-05 to 8.10938e-05
Heightened Def Con from 8.10957e-05 to 8.10968e-05
Heightened Def Con from 8.11177e-05 to 8.11207e-05
Heightened Def Con from 8.11446e-05 to 8.11467e-05
Heightened Def Con from 8.11494e-05 to 8.11505e-05
Heightened Def Con from 8.11766e-05 to 8.11796e-05
Heightened Def Con from 8.12042e-05 +to 8.12073e-05
Heightened Def Con from 8.12207e-05 to 8.12218e-05
Heightened Def Con from 8.12386e-05 to 8.12398e-05
Heightened Def Con from 8.12417e-05 to 8.12447e-05
Heightened Def Con from 8.13004e-05 to 8.13014e-05
Heightened Def Con from 8.13035e-05 to 8.13065e-05
Heightened Def Con from 8.13084e-05 to 8.13095e-05
Heightened Def Con from 8.13482e-05 to 8.13512e-05
Heightened Def Con from 8.13755e-05 to 8.13785e-05
Heightened Def Con from 8.14025e-05 to 8.14055e-05
Heightened Def Con from 8.14295e-05 to 8.14325e-05
Heightened Def Con from 8.14573e-05 to 8.14603e-05
Heightened Def Con from 8.15157e-05 to 8.15178e-05
Heightened Def Con from 8.15548e-05 to 8.15578e-05
Heightened Def Con from 8.15753e-05 to 8.15783e-05
Heightened Def Con from 8.16182e-05 +to 8.16232e-05
Heightened Def Con from 8.1678e-05 to 8.1681e-05
Heightened Def Con from 8.16937e-05 +to 8.16968e-05
Heightened Def Con from 8.17106e-05 +to 8.17138e-05
Heightened Def Con from 8.17501e-05 to 8.17531e-05
Heightened Def Con from 8.17741e-05 to 8.17771e-05
Heightened Def Con from 8.17999e-05 to 8.18029e-05
Heightened Def Con from 8.18384e-05 to 8.18414e-05
Heightened Def Con from 8.18616e-05 to 8.18646e-05
Heightened Def Con from 8.19037e-05 to 8.19048e-05
Heightened Def Con from 8.19068e-05 to 8.19098e-05
Heightened Def Con from 8.19321e-05 to 8.19332e-05
Heightened Def Con from 8.19565e-05 to 8.19577e-05
Heightened Def Con from 8.19874e-05 +to 8.19915e-05
Heightened Def Con from 8.20398e-05 to 8.2041e-05
Heightened Def Con from 8.20711e-05 to 8.20741e-05
Heightened Def Con from 8.21168e-05 +to 8.21218e-05
Heightened Def Con from 8.21443e-05 to 8.21455e-05
Heightened Def Con from 8.21487e-05 to 8.21517e-05
Heightened Def Con from 8.21601e-05 to 8.21612e-05
Heightened Def Con from 8.21789e-05 to 8.21799e-05
Heightened Def Con from 8.22134e-05 to 8.22155e-05
Heightened Def Con from 8.22403e-05 to 8.22433e-05
Heightened Def Con from 8.22665e-05 to 8.22675e-05
Heightened Def Con from 8.22704e-05 to 8.22734e-05
Heightened Def Con from 8.22805e-05 to 8.22835e-05
Heightened Def Con from 8.23035e-05 to 8.23046e-05
Heightened Def Con from 8.23442e-05 to 8.23452e-05
Heightened Def Con from 8.23452e-05 to 8.23482e-05
Heightened Def Con from 8.23735e-05 to 8.23736e-05
Heightened Def Con from 8.2376e-05 to 8.2379e-05
Heightened Def Con from 8.52298e-05 to 8.52348e-05
Heightened Def Con from 8.55259e-05 to 8.55289e-05
Heightened Def Con from 8.55486e-05 to 8.55516e-05
Heightened Def Con from 8.55975e-05 to 8.55985e-05
Heightened Def Con from 8.56009e-05 to 8.56021e-05
Heightened Def Con from 8.56036e-05 to 8.56057e-05
Heightened Def Con from 8.56437e-05 to 8.56457e-05
Heightened Def Con from 8.56663e-05 to 8.56693e-05
Heightened Def Con from 8.56902e-05 to 8.56932e-05
Heightened Def Con from 8.57169e-05 to 8.57199e-05
Heightened Def Con from 8.57446e-05 to 8.57476e-05
Heightened Def Con from 8.57813e-05 to 8.57834e-05
Heightened Def Con from 8.58087e-05 to 8.58098e-05
Heightened Def Con from 8.58326e-05 +to 8.58376e-05
Heightened Def Con from 8.58718e-05 +to 8.58748e-05
Heightened Def Con from 8.58982e-05 to 8.58992e-05
Heightened Def Con from 8.5907e-05 to 8.59081e-05
Heightened Def Con from 8.59491e-05 to 8.59503e-05
Heightened Def Con from 8.59529e-05 to 8.59541e-05
Heightened Def Con from 8.59635e-05 to 8.59656e-05
Heightened Def Con from 8.59702e-05 to 8.59723e-05
Heightened Def Con from 8.59744e-05 to 8.59774e-05
Heightened Def Con from 8.6008e-05 to 8.60091e-05
Heightened Def Con from 8.60111e-05 to 8.60141e-05
Heightened Def Con from 8.60364e-05 to 8.60394e-05
Heightened Def Con from 8.60642e-05 to 8.60653e-05
Heightened Def Con from 8.60672e-05 to 8.60684e-05
Heightened Def Con from 8.607e-05 to 8.6073e-05
Heightened Def Con from 8.60924e-05 to 8.60935e-05
Heightened Def Con from 8.60956e-05 to 8.60967e-05
Heightened Def Con from 8.60993e-05 to 8.61023e-05
Heightened Def Con from 8.61236e-05 to 8.61257e-05
Heightened Def Con from 8.61494e-05 to 8.61505e-05
Heightened Def Con from 8.61667e-05 to 8.61678e-05
Heightened Def Con from 8.61737e-05 to 8.61767e-05
Heightened Def Con from 8.62051e-05 to 8.62062e-05
Heightened Def Con from 8.62082e-05 +to 8.62123e-05
Heightened Def Con from 8.62138e-05 to 8.62168e-05
Heightened Def Con from 8.62482e-05 +to 8.62522e-05
Heightened Def Con from 8.63072e-05 to 8.63082e-05
Heightened Def Con from 8.63099e-05 to 8.6311e-05
Heightened Def Con from 8.63621e-05 to 8.63631e-05
Heightened Def Con from 8.63839e-05 to 8.6385e-05
Heightened Def Con from 8.63882e-05 to 8.63893e-05
Heightened Def Con from 8.63909e-05 +to 8.63959e-05
Heightened Def Con from 8.64076e-05 to 8.64106e-05
Heightened Def Con from 8.64387e-05 to 8.64397e-05
Heightened Def Con from 8.64414e-05 to 8.64444e-05
Heightened Def Con from 8.64711e-05 to 8.64722e-05
Heightened Def Con from 8.64743e-05 to 8.64773e-05
Heightened Def Con from 8.64869e-05 to 8.6488e-05
Heightened Def Con from 8.64891e-05 to 8.64921e-05
Heightened Def Con from 8.65013e-05 +to 8.65063e-05
Heightened Def Con from 8.65403e-05 to 8.65433e-05
Heightened Def Con from 8.65444e-05 +to 8.65474e-05
Heightened Def Con from 8.65795e-05 to 8.65825e-05
Heightened Def Con from 8.66051e-05 to 8.66063e-05
Heightened Def Con from 8.66085e-05 to 8.66115e-05
Heightened Def Con from 8.66634e-05 to 8.66664e-05
Heightened Def Con from 8.66883e-05 to 8.66893e-05
Heightened Def Con from 8.6691e-05 to 8.6694e-05
Heightened Def Con from 8.67325e-05 to 8.67355e-05
Heightened Def Con from 8.67553e-05 to 8.67564e-05
Heightened Def Con from 8.67797e-05 to 8.67808e-05
Heightened Def Con from 8.6784e-05 to 8.67862e-05
Heightened Def Con from 8.68114e-05 to 8.68126e-05
Heightened Def Con from 8.68145e-05 to 8.68156e-05
Heightened Def Con from 8.68171e-05 to 8.68183e-05
Heightened Def Con from 8.6819e-05 to 8.6821e-05
Heightened Def Con from 8.68397e-05 to 8.68408e-05
Heightened Def Con from 8.68427e-05 to 8.68457e-05
Heightened Def Con from 8.68961e-05 +to 8.69011e-05
Heightened Def Con from 8.69231e-05 to 8.69242e-05
Heightened Def Con from 8.69261e-05 +to 8.69292e-05
Heightened Def Con from 8.69949e-05 to 8.6996e-05
Heightened Def Con from 8.6998e-05 to 8.7001e-05
Heightened Def Con from 8.70234e-05 to 8.70246e-05
Heightened Def Con from 8.7029e-05 ++to 8.7037e-05
Heightened Def Con from 8.71172e-05 to 8.71202e-05
Heightened Def Con from 8.71411e-05 ++to 8.71491e-05
Heightened Def Con from 8.71837e-05 to 8.71838e-05
Heightened Def Con from 8.71839e-05 to 8.7185e-05
Heightened Def Con from 8.71989e-05 to 8.72e-05
Heightened Def Con from 8.72165e-05 to 8.72176e-05
Heightened Def Con from 8.72262e-05 +to 8.72292e-05
Heightened Def Con from 8.72308e-05 to 8.72329e-05
Heightened Def Con from 8.72634e-05 to 8.72664e-05
Heightened Def Con from 8.72676e-05 to 8.72706e-05
Heightened Def Con from 8.73156e-05 to 8.73186e-05
Heightened Def Con from 8.73445e-05 to 8.73475e-05
Heightened Def Con from 8.73986e-05 to 8.74057e-05
Heightened Def Con from 9.04881e-05 to 9.04911e-05
Heightened Def Con from 9.05554e-05 to 9.05584e-05
Heightened Def Con from 9.05798e-05 to 9.05808e-05
Heightened Def Con from 9.05832e-05 to 9.05862e-05
Heightened Def Con from 9.06549e-05 to 9.06579e-05
Heightened Def Con from 9.06811e-05 to 9.06822e-05
Heightened Def Con from 9.06845e-05 to 9.06875e-05
Heightened Def Con from 9.07476e-05 to 9.07497e-05
Heightened Def Con from 9.07704e-05 to 9.07734e-05
Heightened Def Con from 9.0797e-05 to 9.0798e-05
Heightened Def Con from 9.08582e-05 to 9.08592e-05
Heightened Def Con from 9.09988e-05 to 9.10018e-05
Heightened Def Con from 9.10326e-05 +to 9.10357e-05
Heightened Def Con from 9.10476e-05 to 9.10506e-05
Heightened Def Con from 9.10544e-05 to 9.10554e-05
Heightened Def Con from 9.1077e-05 to 9.108e-05
Heightened Def Con from 9.11042e-05 +to 9.11073e-05
Heightened Def Con from 9.11303e-05 to 9.11314e-05
Heightened Def Con from 9.11547e-05 +to 9.11597e-05
Heightened Def Con from 9.11615e-05 to 9.11636e-05
Heightened Def Con from 9.11939e-05 to 9.11969e-05
Heightened Def Con from 9.12179e-05 to 9.12201e-05
Heightened Def Con from 9.12223e-05 to 9.12253e-05
Heightened Def Con from 9.12632e-05 to 9.12662e-05
Heightened Def Con from 9.12879e-05 to 9.12909e-05
Heightened Def Con from 9.13149e-05 to 9.13169e-05
Heightened Def Con from 9.13435e-05 to 9.13446e-05
Heightened Def Con from 9.13466e-05 to 9.13477e-05
Heightened Def Con from 9.13492e-05 to 9.13514e-05
Heightened Def Con from 9.13843e-05 to 9.13873e-05
Heightened Def Con from 9.14098e-05 to 9.14128e-05
Heightened Def Con from 9.14364e-05 +to 9.14394e-05
Heightened Def Con from 9.15089e-05 to 9.1509e-05
Heightened Def Con from 9.15115e-05 to 9.15126e-05
Heightened Def Con from 9.15369e-05 to 9.15399e-05
Heightened Def Con from 9.15659e-05 +to 9.1569e-05
Heightened Def Con from 9.15847e-05 to 9.15869e-05
Heightened Def Con from 9.16149e-05 to 9.1616e-05
Heightened Def Con from 9.16316e-05 +to 9.16366e-05
Heightened Def Con from 9.16439e-05 to 9.1646e-05
Heightened Def Con from 9.16938e-05 to 9.16968e-05
Heightened Def Con from 9.17191e-05 +to 9.17241e-05
Heightened Def Con from 9.17374e-05 to 9.17385e-05
Heightened Def Con from 9.17514e-05 to 9.17524e-05
Heightened Def Con from 9.17546e-05 to 9.17576e-05
Heightened Def Con from 9.17725e-05 to 9.17735e-05
Heightened Def Con from 9.17735e-05 +to 9.17757e-05
Heightened Def Con from 9.18257e-05 to 9.18268e-05
Heightened Def Con from 9.18294e-05 +to 9.18325e-05
Heightened Def Con from 9.18343e-05 to 9.18353e-05
Heightened Def Con from 9.18353e-05 to 9.18383e-05
Heightened Def Con from 9.18496e-05 to 9.18497e-05
Heightened Def Con from 9.18499e-05 to 9.1852e-05
Heightened Def Con from 9.18831e-05 to 9.18852e-05
Heightened Def Con from 9.18874e-05 to 9.18904e-05
Heightened Def Con from 9.19132e-05 ++to 9.19183e-05
Heightened Def Con from 9.19702e-05 +to 9.19744e-05
Heightened Def Con from 9.19873e-05 to 9.19903e-05
Heightened Def Con from 9.20263e-05 to 9.20293e-05
Heightened Def Con from 9.20515e-05 +to 9.20565e-05
Heightened Def Con from 9.21095e-05 +to 9.21145e-05
Heightened Def Con from 9.21369e-05 to 9.21379e-05
Heightened Def Con from 9.21848e-05 to 9.21878e-05
Heightened Def Con from 9.22116e-05 to 9.22127e-05
Heightened Def Con from 9.22507e-05 to 9.22527e-05
Heightened Def Con from 9.22543e-05 to 9.22573e-05
Heightened Def Con from 9.22792e-05 to 9.22803e-05
Heightened Def Con from 9.22936e-05 to 9.22946e-05
Heightened Def Con from 9.22946e-05 to 9.22948e-05
Heightened Def Con from 9.22948e-05 to 9.22948e-05
Heightened Def Con from 9.23033e-05 +to 9.23065e-05
Heightened Def Con from 9.23094e-05 +to 9.23134e-05
Heightened Def Con from 9.23449e-05 to 9.23459e-05
Heightened Def Con from 9.23664e-05 to 9.23694e-05
Heightened Def Con from 9.23936e-05 to 9.23966e-05
Heightened Def Con from 9.55718e-05 to 9.55748e-05
Heightened Def Con from 9.56158e-05 to 9.56169e-05
Heightened Def Con from 9.57437e-05 to 9.57447e-05
Heightened Def Con from 9.57889e-05 to 9.57899e-05
Heightened Def Con from 9.58156e-05 to 9.58166e-05
Heightened Def Con from 9.5828e-05 to 9.58291e-05
Heightened Def Con from 9.58497e-05 +to 9.58547e-05
Heightened Def Con from 9.59466e-05 to 9.59476e-05
Heightened Def Con from 9.59729e-05 to 9.59759e-05
Heightened Def Con from 9.60066e-05 to 9.60077e-05
Heightened Def Con from 9.60084e-05 to 9.60095e-05
Heightened Def Con from 9.6031e-05 to 9.6034e-05
Heightened Def Con from 9.60582e-05 to 9.60612e-05
Heightened Def Con from 9.61107e-05 to 9.61118e-05
Heightened Def Con from 9.61135e-05 to 9.61165e-05
Heightened Def Con from 9.61574e-05 to 9.61604e-05
Heightened Def Con from 9.61874e-05 to 9.61896e-05
Heightened Def Con from 9.61916e-05 to 9.61946e-05
Heightened Def Con from 9.61959e-05 to 9.61989e-05
Heightened Def Con from 9.62192e-05 to 9.62222e-05
Heightened Def Con from 9.62453e-05 ++to 9.62533e-05
Heightened Def Con from 9.62753e-05 to 9.62763e-05
Heightened Def Con from 9.63014e-05 +to 9.63055e-05
Heightened Def Con from 9.63191e-05 to 9.63195e-05
Heightened Def Con from 9.63399e-05 to 9.634e-05
Heightened Def Con from 9.63403e-05 +to 9.63444e-05
Heightened Def Con from 9.6378e-05 to 9.6381e-05
Heightened Def Con from 9.64198e-05 +to 9.64248e-05
Heightened Def Con from 9.64457e-05 to 9.64467e-05
Heightened Def Con from 9.64468e-05 to 9.64498e-05
Heightened Def Con from 9.64857e-05 to 9.64887e-05
Heightened Def Con from 9.65103e-05 to 9.65133e-05
Heightened Def Con from 9.6538e-05 +to 9.6541e-05
Heightened Def Con from 9.65641e-05 to 9.65652e-05
Heightened Def Con from 9.65671e-05 to 9.65701e-05
Heightened Def Con from 9.65713e-05 to 9.65724e-05
Heightened Def Con from 9.65724e-05 +to 9.65774e-05
Heightened Def Con from 9.65884e-05 to 9.65896e-05
Heightened Def Con from 9.66088e-05 to 9.66118e-05
Heightened Def Con from 9.6663e-05 to 9.6666e-05
Heightened Def Con from 9.66899e-05 to 9.6691e-05
Heightened Def Con from 9.66975e-05 to 9.67005e-05
Heightened Def Con from 9.67251e-05 to 9.67263e-05
Heightened Def Con from 9.67283e-05 +to 9.67314e-05
Heightened Def Con from 9.67661e-05 to 9.67691e-05
Heightened Def Con from 9.67826e-05 +to 9.67856e-05
Heightened Def Con from 9.68195e-05 to 9.68225e-05
Heightened Def Con from 9.68449e-05 to 9.6846e-05
Heightened Def Con from 9.68464e-05 to 9.68485e-05
Heightened Def Con from 9.68709e-05 to 9.6872e-05
Heightened Def Con from 9.68753e-05 to 9.68764e-05
Heightened Def Con from 9.69136e-05 +to 9.69166e-05
Heightened Def Con from 9.6939e-05 to 9.6942e-05
Heightened Def Con from 9.697e-05 to 9.6973e-05
Heightened Def Con from 9.69953e-05 +to 9.69984e-05
Heightened Def Con from 9.70218e-05 to 9.70248e-05
Heightened Def Con from 9.70594e-05 to 9.70624e-05
Heightened Def Con from 9.70844e-05 to 9.70874e-05
Heightened Def Con from 9.71107e-05 to 9.71127e-05
Heightened Def Con from 9.71383e-05 +to 9.71414e-05
Heightened Def Con from 9.71439e-05 to 9.71469e-05
Heightened Def Con from 9.71566e-05 to 9.71596e-05
Heightened Def Con from 9.71826e-05 to 9.71838e-05
Heightened Def Con from 9.71861e-05 to 9.71891e-05
Heightened Def Con from 9.7244e-05 +to 9.7249e-05
Heightened Def Con from 9.72718e-05 to 9.72748e-05
Heightened Def Con from 9.72831e-05 to 9.72842e-05
Heightened Def Con from 9.72844e-05 to 9.72855e-05
Heightened Def Con from 9.72914e-05 +to 9.72964e-05
Heightened Def Con from 9.7351e-05 +to 9.7356e-05
Heightened Def Con from 9.73788e-05 to 9.73799e-05
Heightened Def Con from 9.74006e-05 to 9.74017e-05
Heightened Def Con from 0.000100569 to 0.00010057
Heightened Def Con from 0.000100643 +to 0.000100646
Heightened Def Con from 0.00010067 to 0.000100672
Heightened Def Con from 0.000100712 to 0.000100714
Heightened Def Con from 0.000100736 +to 0.000100741
Heightened Def Con from 0.00010079 to 0.000100791
Heightened Def Con from 0.00010083 to 0.000100833
Heightened Def Con from 0.000100856 to 0.000100857
Heightened Def Con from 0.000100895 to 0.000100896
Heightened Def Con from 0.000100916 to 0.000100917
Heightened Def Con from 0.000100919 to 0.000100922
Heightened Def Con from 0.000100946 to 0.000100947
Heightened Def Con from 0.000100958 to 0.000100961
Heightened Def Con from 0.00010097 to 0.000100973
Heightened Def Con from 0.000100983 to 0.000100984
Heightened Def Con from 0.000101024 to 0.000101025
Heightened Def Con from 0.00010103 to 0.000101033
[...]
Heightened Def Con from 0.00017572 to 0.000175721
Heightened Def Con from 0.00017575 to 0.000175753
Heightened Def Con from 0.000175776 to 0.000175779
Heightened Def Con from 0.000175803 to 0.000175806
Heightened Def Con from 0.000175829 to 0.000175831
Heightened Def Con from 0.000175855 +to 0.00017586
Heightened Def Con from 0.000175931 +to 0.000175935
Heightened Def Con from 0.000175958 +to 0.000175963
Heightened Def Con from 0.000175969 to 0.00017597
Heightened Def Con from 0.000176023 to 0.000176024
Heightened Def Con from 0.000176058 to 0.000176059
Heightened Def Con from 0.000176061 to 0.000176064
Heightened Def Con from 0.000176076 to 0.000176079
Heightened Def Con from 0.000176102 to 0.000176105
Heightened Def Con from 0.000176118 +to 0.000176121
Heightened Def Con from 0.000176169 to 0.00017617
Heightened Def Con from 0.000176172 to 0.000176173
Heightened Def Con from 0.000176209 to 0.000176211
Heightened Def Con from 0.000176213 to 0.000176214
Heightened Def Con from 0.00017624 to 0.000176242
Heightened Def Con from 0.000176269 to 0.00017627
Heightened Def Con from 0.000176272 to 0.000176275
Heightened Def Con from 0.000176296 to 0.000176297
Heightened Def Con from 0.000176299 to 0.0001763
Heightened Def Con from 0.000176324 +++to 0.000176334
Heightened Def Con from 0.000176343 to 0.000176346
Heightened Def Con from 0.000176387 to 0.000176388
Heightened Def Con from 0.000176411 to 0.000176414
Heightened Def Con from 0.000176436 +to 0.00017644
Heightened Def Con from 0.000176454 to 0.000176455
Heightened Def Con from 0.000176464 to 0.000176466
Heightened Def Con from 0.000176473 to 0.000176475
Heightened Def Con from 0.000176498 to 0.000176499
Heightened Def Con from 0.000176502 +to 0.000176505
Heightened Def Con from 0.000176507 to 0.000176508
Heightened Def Con from 0.000176508 to 0.00017651
Heightened Def Con from 0.000176531 to 0.000176532
Heightened Def Con from 0.000176534 to 0.000176535
Heightened Def Con from 0.000176536 to 0.000176539
Heightened Def Con from 0.000176592 to 0.000176595
Heightened Def Con from 0.000176622 to 0.000176623
Heightened Def Con from 0.000176625 to 0.000176628
Heightened Def Con from 0.00017665 to 0.00017665
Heightened Def Con from 0.000176652 to 0.000176655
Heightened Def Con from 0.000176678 to 0.000176681
Heightened Def Con from 0.000176704 to 0.000176705
Heightened Def Con from 0.000176707 to 0.000176708
Heightened Def Con from 0.00017676 to 0.000176761
Heightened Def Con from 0.000176762 to 0.000176765
Heightened Def Con from 0.000176788 to 0.000176789
Heightened Def Con from 0.000176791 to 0.000176792
Heightened Def Con from 0.000176814 to 0.000176817
Heightened Def Con from 0.00017684 to 0.000176843
Heightened Def Con from 0.000176878 to 0.000176881
Heightened Def Con from 0.000176894 to 0.000176895
Heightened Def Con from 0.000176917 to 0.000176918
Heightened Def Con from 0.00017692 to 0.000176923
Heightened Def Con from 0.000176946 to 0.000176947
Heightened Def Con from 0.000176949 to 0.00017695
Heightened Def Con from 0.000176976 to 0.000176979
Heightened Def Con from 0.000177036 to 0.000177037
Heightened Def Con from 0.000177039 to 0.000177042
Heightened Def Con from 0.000177065 to 0.000177067
Heightened Def Con from 0.000177069 to 0.00017707
Heightened Def Con from 0.000177113 +to 0.000177118
Heightened Def Con from 0.000177131 +to 0.000177136
Heightened Def Con from 0.000177159 to 0.000177161
Heightened Def Con from 0.000177164 to 0.000177167
Heightened Def Con from 0.000177188 to 0.000177189
Heightened Def Con from 0.000177215 to 0.000177216
Heightened Def Con from 0.000177217 to 0.000177219
Heightened Def Con from 0.000177241 to 0.000177244
Heightened Def Con from 0.000177269 to 0.000177272
Heightened Def Con from 0.000177284 to 0.000177287
Heightened Def Con from 0.000177301 to 0.000177303
Heightened Def Con from 0.000177307 to 0.000177308
Heightened Def Con from 0.000177308 to 0.000177311
Heightened Def Con from 0.000177332 to 0.000177335
Heightened Def Con from 0.000177386 to 0.000177387
Heightened Def Con from 0.000177391 to 0.000177394
Heightened Def Con from 0.000180538 to 0.00018054
Heightened Def Con from 0.000180794 to 0.000180795
Heightened Def Con from 0.000180823 to 0.000180825
Heightened Def Con from 0.000180849 to 0.000180852
Heightened Def Con from 0.000180908 to 0.000180909
Heightened Def Con from 0.000180911 ++to 0.000180917
Heightened Def Con from 0.000180951 to 0.000180952
Heightened Def Con from 0.000180978 to 0.000180979
Heightened Def Con from 0.000180981 to 0.000180984
Heightened Def Con from 0.000181005 to 0.000181008
Heightened Def Con from 0.000181031 to 0.000181032
Heightened Def Con from 0.000181035 to 0.000181038
Heightened Def Con from 0.000181062 to 0.000181065
Heightened Def Con from 0.000181092 to 0.000181095
Heightened Def Con from 0.000181131 to 0.000181134
Heightened Def Con from 0.000181156 to 0.000181157
Heightened Def Con from 0.000181159 to 0.00018116
Heightened Def Con from 0.000181183 to 0.000181184
Heightened Def Con from 0.000181186 to 0.000181187
Heightened Def Con from 0.000181187 to 0.00018119
Heightened Def Con from 0.000181217 to 0.000181219
Heightened Def Con from 0.000181255 to 0.000181256
Heightened Def Con from 0.000181258 +to 0.000181263
Heightened Def Con from 0.000181286 to 0.000181288
Heightened Def Con from 0.00018129 to 0.000181293
Heightened Def Con from 0.000181299 to 0.000181302
Heightened Def Con from 0.000181323 to 0.000181324
Heightened Def Con from 0.000181326 to 0.000181328
Heightened Def Con from 0.000181337 to 0.000181338
Heightened Def Con from 0.000181338 to 0.000181341
Heightened Def Con from 0.000181352 to 0.000181353
Heightened Def Con from 0.000181353 +to 0.000181357
Heightened Def Con from 0.000181384 to 0.000181385
Heightened Def Con from 0.000181387 to 0.00018139
Heightened Def Con from 0.000181423 to 0.000181424
Heightened Def Con from 0.000181426 to 0.000181428
Heightened Def Con from 0.000181428 to 0.000181431
Heightened Def Con from 0.00018147 to 0.000181471
Heightened Def Con from 0.000181471 to 0.000181472
Heightened Def Con from 0.000181508 to 0.000181509
Heightened Def Con from 0.000181511 to 0.000181514
Heightened Def Con from 0.000181537 to 0.000181538
Heightened Def Con from 0.00018154 to 0.000181541
Heightened Def Con from 0.000181582 to 0.000181585
Heightened Def Con from 0.000181609 to 0.000181612
Heightened Def Con from 0.000181635 to 0.000181636
Heightened Def Con from 0.000181639 to 0.00018164
Heightened Def Con from 0.000181662 to 0.000181663
Heightened Def Con from 0.000181665 +to 0.000181669
Heightened Def Con from 0.000181743 +to 0.000181748
Heightened Def Con from 0.000181783 to 0.000181786
Heightened Def Con from 0.000181806 to 0.000181808
Heightened Def Con from 0.00018181 to 0.000181811
Heightened Def Con from 0.000181813 to 0.000181814
Heightened Def Con from 0.000181814 to 0.000181817
Heightened Def Con from 0.00018184 to 0.000181842
Heightened Def Con from 0.000181844 +to 0.000181848
Heightened Def Con from 0.000181871 to 0.000181874
Heightened Def Con from 0.000181907 to 0.00018191
Heightened Def Con from 0.000181929 to 0.000181932
Heightened Def Con from 0.000181935 to 0.000181938
Heightened Def Con from 0.000181938 to 0.000181939
Heightened Def Con from 0.000181959 to 0.00018196
Heightened Def Con from 0.000181964 to 0.000181965
Heightened Def Con from 0.000181991 to 0.000181994
Heightened Def Con from 0.000182017 to 0.000182018
Heightened Def Con from 0.00018202 to 0.000182023
Heightened Def Con from 0.000182064 to 0.000182067
Heightened Def Con from 0.000182088 to 0.000182089
Heightened Def Con from 0.000182115 to 0.000182116
Heightened Def Con from 0.000182118 to 0.000182119
Heightened Def Con from 0.000182159 to 0.00018216
Heightened Def Con from 0.000182162 to 0.000182163
Heightened Def Con from 0.000182165 to 0.000182166
Heightened Def Con from 0.000182167 +to 0.000182172
Heightened Def Con from 0.000182224 +to 0.000182229
Heightened Def Con from 0.000182265 to 0.000182268
Heightened Def Con from 0.000182288 to 0.000182291
Heightened Def Con from 0.000182325 to 0.000182328
Heightened Def Con from 0.000182358 to 0.000182361
Heightened Def Con from 0.000182382 to 0.000182383
Heightened Def Con from 0.000182385 to 0.000182388
Heightened Def Con from 0.000185523 to 0.000185526
Heightened Def Con from 0.000185742 to 0.000185743
Heightened Def Con from 0.000185755 to 0.000185756
Heightened Def Con from 0.000185793 to 0.000185794
Heightened Def Con from 0.00018582 to 0.000185821
Heightened Def Con from 0.000185856 to 0.000185857
Heightened Def Con from 0.00018586 to 0.000185861
Heightened Def Con from 0.000185894 to 0.000185897
Heightened Def Con from 0.000185899 to 0.000185902
Heightened Def Con from 0.000185911 to 0.000185914
Heightened Def Con from 0.000185938 to 0.000185939
Heightened Def Con from 0.000185942 to 0.000185945
Heightened Def Con from 0.000185978 to 0.000185981
Heightened Def Con from 0.000185989 to 0.00018599
Heightened Def Con from 0.000185992 to 0.000185993
Heightened Def Con from 0.000186018 to 0.000186019
Heightened Def Con from 0.000186021 to 0.000186022
Heightened Def Con from 0.000186024 to 0.000186025
Heightened Def Con from 0.000186045 to 0.000186047
Heightened Def Con from 0.000186049 to 0.000186052
Heightened Def Con from 0.000186075 to 0.000186078
Heightened Def Con from 0.000186099 to 0.000186102
Heightened Def Con from 0.000186126 +to 0.000186131
Heightened Def Con from 0.000186144 to 0.000186147
Heightened Def Con from 0.000186182 to 0.000186185
Heightened Def Con from 0.000186211 to 0.000186212
Heightened Def Con from 0.000186214 to 0.000186215
Heightened Def Con from 0.000186269 to 0.000186272
Heightened Def Con from 0.000186294 to 0.000186297
Heightened Def Con from 0.00018632 to 0.000186321
Heightened Def Con from 0.000186324 to 0.000186325
Heightened Def Con from 0.000186327 to 0.00018633
Heightened Def Con from 0.000186346 +to 0.000186351
Heightened Def Con from 0.000186396 to 0.000186397
Heightened Def Con from 0.000186414 +to 0.000186418
Heightened Def Con from 0.000186422 to 0.000186425
Heightened Def Con from 0.000186446 to 0.000186449
Heightened Def Con from 0.000186499 to 0.0001865
Heightened Def Con from 0.000186519 to 0.000186522
Heightened Def Con from 0.000186539 to 0.000186542
Heightened Def Con from 0.000186557 to 0.000186558
Heightened Def Con from 0.000186568 to 0.000186569
Heightened Def Con from 0.000186572 to 0.000186575
Heightened Def Con from 0.000186608 to 0.000186609
Heightened Def Con from 0.000186609 to 0.000186611
Heightened Def Con from 0.000186645 to 0.000186648
Heightened Def Con from 0.000186671 to 0.000186674
Heightened Def Con from 0.000186698 to 0.000186701
Heightened Def Con from 0.000186759 to 0.000186762
Heightened Def Con from 0.000186782 ++to 0.000186789
Heightened Def Con from 0.000186838 +to 0.000186841
Heightened Def Con from 0.000186864 to 0.000186865
Heightened Def Con from 0.000186884 to 0.000186886
Heightened Def Con from 0.000186903 to 0.000186906
Heightened Def Con from 0.000186943 +to 0.000186947
Heightened Def Con from 0.000187016 to 0.000187017
Heightened Def Con from 0.000187019 to 0.00018702
Heightened Def Con from 0.000187022 to 0.000187023
Heightened Def Con from 0.000187023 +to 0.000187027
Heightened Def Con from 0.000187075 to 0.000187076
Heightened Def Con from 0.000187102 to 0.000187103
Heightened Def Con from 0.00018713 to 0.000187131
Heightened Def Con from 0.000187134 to 0.000187135
Heightened Def Con from 0.000187136 to 0.000187139
Heightened Def Con from 0.000187162 to 0.000187163
Heightened Def Con from 0.000187166 to 0.000187167
Heightened Def Con from 0.000187168 to 0.000187171
Heightened Def Con from 0.000187192 to 0.000187193
Heightened Def Con from 0.000187195 to 0.000187198
Heightened Def Con from 0.0001872 to 0.000187201
Heightened Def Con from 0.000187223 to 0.000187226
Heightened Def Con from 0.000187249 to 0.000187252
Heightened Def Con from 0.00018726 to 0.00018726
Heightened Def Con from 0.00018729 to 0.000187291
Heightened Def Con from 0.000187314 +to 0.000187317
Heightened Def Con from 0.000187354 to 0.000187355
Heightened Def Con from 0.000187357 to 0.00018736
Heightened Def Con from 0.000187382 to 0.000187384
Heightened Def Con from 0.00018739 to 0.000187393
Heightened Def Con from 0.000187394 to 0.000187395
Heightened Def Con from 0.000187395 to 0.000187396
Heightened Def Con from 0.00019055 to 0.000190552
Heightened Def Con from 0.00019057 to 0.000190571
Heightened Def Con from 0.000190584 to 0.000190587
Heightened Def Con from 0.000190627 to 0.000190628
Heightened Def Con from 0.000190651 to 0.000190652
Heightened Def Con from 0.000190654 to 0.000190656
Heightened Def Con from 0.000191212 to 0.000191213
Heightened Def Con from 0.000191215 to 0.000191216
Heightened Def Con from 0.000191237 to 0.00019124
Heightened Def Con from 0.000191264 to 0.000191265
Heightened Def Con from 0.000191289 to 0.00019129
Heightened Def Con from 0.000191292 to 0.000191295
Heightened Def Con from 0.000191351 to 0.000191354
Heightened Def Con from 0.000191376 to 0.000191379
Heightened Def Con from 0.000191404 to 0.000191407
Heightened Def Con from 0.000191444 to 0.000191447
Heightened Def Con from 0.000191472 to 0.000191475
Heightened Def Con from 0.000191498 to 0.000191501
Heightened Def Con from 0.000191542 +to 0.000191547
Heightened Def Con from 0.000191587 to 0.00019159
Heightened Def Con from 0.000191593 to 0.000191594
Heightened Def Con from 0.000191594 to 0.000191597
Heightened Def Con from 0.000191642 to 0.000191643
Heightened Def Con from 0.000191658 to 0.00019166
Heightened Def Con from 0.000191674 to 0.000191675
Heightened Def Con from 0.0001917 +to 0.000191703
Heightened Def Con from 0.000191705 to 0.000191708
Heightened Def Con from 0.000191739 to 0.000191742
Heightened Def Con from 0.000191744 to 0.000191747
Heightened Def Con from 0.000191757 to 0.000191758
Heightened Def Con from 0.000191758 to 0.000191758
Heightened Def Con from 0.000191758 to 0.000191761
Heightened Def Con from 0.000191762 to 0.000191763
Heightened Def Con from 0.000191791 to 0.000191794
Heightened Def Con from 0.000191815 to 0.000191818
Heightened Def Con from 0.000191838 to 0.000191841
Heightened Def Con from 0.000191858 to 0.000191859
Heightened Def Con from 0.000191865 to 0.000191868
Heightened Def Con from 0.000191889 to 0.000191892
Heightened Def Con from 0.00019193 to 0.000191931
Heightened Def Con from 0.000191932 +to 0.000191935
Heightened Def Con from 0.000191938 to 0.000191941
Heightened Def Con from 0.000191951 to 0.000191954
Heightened Def Con from 0.000191971 to 0.000191972
Heightened Def Con from 0.000191975 to 0.000191978
Heightened Def Con from 0.000192025 to 0.000192028
Heightened Def Con from 0.000192051 +to 0.000192056
Heightened Def Con from 0.000192127 to 0.000192128
Heightened Def Con from 0.00019213 ++to 0.000192136
Heightened Def Con from 0.000192171 to 0.000192172
Heightened Def Con from 0.000192178 to 0.000192181
Heightened Def Con from 0.000192209 to 0.000192212
Heightened Def Con from 0.000192237 to 0.000192238
Heightened Def Con from 0.00019224 +to 0.000192243
Heightened Def Con from 0.000192268 to 0.000192269
Heightened Def Con from 0.000192271 to 0.000192274
Heightened Def Con from 0.000192297 to 0.0001923
Heightened Def Con from 0.000192353 to 0.000192356
Heightened Def Con from 0.000192378 to 0.000192379
Heightened Def Con from 0.000192381 to 0.000192383
Heightened Def Con from 0.000192397 to 0.000192405
Heightened Def Con from 0.00019557 to 0.000195572
Heightened Def Con from 0.000195699 to 0.0001957
Heightened Def Con from 0.000195728 to 0.000195731
Heightened Def Con from 0.000195766 to 0.000195767
Heightened Def Con from 0.000195808 to 0.000195809
Heightened Def Con from 0.000195836 +to 0.000195839
Heightened Def Con from 0.000195843 to 0.000195846
Heightened Def Con from 0.000195848 to 0.00019585
Heightened Def Con from 0.000195869 to 0.00019587
Heightened Def Con from 0.000195894 to 0.000195897
Heightened Def Con from 0.000195919 to 0.000195922
Heightened Def Con from 0.000195946 to 0.000195947
Heightened Def Con from 0.000195985 to 0.000195988
Heightened Def Con from 0.000196013 to 0.000196014
Heightened Def Con from 0.000196016 to 0.000196017
Heightened Def Con from 0.000196029 to 0.000196032
Heightened Def Con from 0.000196063 to 0.000196066
Heightened Def Con from 0.000196099 +to 0.000196104
Heightened Def Con from 0.000196128 to 0.000196129
Heightened Def Con from 0.000196161 to 0.000196162
Heightened Def Con from 0.000196191 to 0.000196192
Heightened Def Con from 0.000196194 to 0.000196196
Heightened Def Con from 0.000196197 to 0.000196198
Heightened Def Con from 0.000196198 to 0.000196199
Heightened Def Con from 0.000196243 +to 0.000196246
Heightened Def Con from 0.000196274 to 0.000196277
Heightened Def Con from 0.000196281 +to 0.000196285
Heightened Def Con from 0.000196307 to 0.000196308
Heightened Def Con from 0.000196311 to 0.000196314
Heightened Def Con from 0.000196341 to 0.000196342
Heightened Def Con from 0.000196345 to 0.000196346
Heightened Def Con from 0.000196347 to 0.00019635
Heightened Def Con from 0.00019637 to 0.000196372
Heightened Def Con from 0.000196376 to 0.000196379
Heightened Def Con from 0.00019638 to 0.000196381
Heightened Def Con from 0.000196424 to 0.000196427
Heightened Def Con from 0.000196451 to 0.000196452
Heightened Def Con from 0.000196468 +to 0.000196471
Heightened Def Con from 0.000196484 to 0.000196485
Heightened Def Con from 0.000196485 to 0.000196488
Heightened Def Con from 0.000196492 to 0.000196493
Heightened Def Con from 0.000196494 to 0.000196495
Heightened Def Con from 0.000196495 to 0.000196495
Heightened Def Con from 0.00019652 to 0.000196522
Heightened Def Con from 0.000196566 to 0.000196567
Heightened Def Con from 0.00019659 +to 0.000196593
Heightened Def Con from 0.000196597 to 0.000196599
Heightened Def Con from 0.000196618 +to 0.000196623
Heightened Def Con from 0.00019669 to 0.000196693
Heightened Def Con from 0.000196698 to 0.000196701
Heightened Def Con from 0.000196735 to 0.000196736
Heightened Def Con from 0.000196736 to 0.000196738
Heightened Def Con from 0.000196771 to 0.000196772
Heightened Def Con from 0.000196797 to 0.000196799
Heightened Def Con from 0.000196822 to 0.000196825
Heightened Def Con from 0.000196845 to 0.000196846
Heightened Def Con from 0.000196848 +to 0.000196853
Heightened Def Con from 0.000196876 +to 0.000196879
Heightened Def Con from 0.000196881 to 0.000196882
Heightened Def Con from 0.000196882 to 0.000196883
Heightened Def Con from 0.000196916 to 0.000196917
Heightened Def Con from 0.000196948 to 0.000196951
Heightened Def Con from 0.000196975 to 0.000196976
Heightened Def Con from 0.000196978 to 0.000196979
Heightened Def Con from 0.000197033 to 0.000197036
Heightened Def Con from 0.000197061 to 0.000197064
Heightened Def Con from 0.000197087 to 0.000197089
Heightened Def Con from 0.000197113 to 0.000197116
Heightened Def Con from 0.00019714 to 0.000197141
Heightened Def Con from 0.00019717 to 0.000197171
Heightened Def Con from 0.000197173 to 0.000197174
Heightened Def Con from 0.000197195 to 0.000197196
Heightened Def Con from 0.000197198 to 0.000197199
Heightened Def Con from 0.000197235 to 0.000197238
Heightened Def Con from 0.000197261 to 0.000197264
Heightened Def Con from 0.000197305 to 0.000197306
Heightened Def Con from 0.000197308 to 0.000197309
Heightened Def Con from 0.000197333 to 0.000197336
Heightened Def Con from 0.000197359 +to 0.000197362
Heightened Def Con from 0.000197397 to 0.000197405

Date: Wed Apr  8 14:20:14 2020
Total elapsed time: 41.532 seconds.

tnom = 27
temp = 27
method = modified trap
totiter = 1135858
traniter = 1135828
tranpoints = 202074
accept = 124661
rejected = 81086
matrix size = 137
fillins = 282
solver = Normal
Thread vector: 41.3/27.3[2] 3.8/3.0[2] 3.0/2.3[2] 0.9/1.5[1]  2592/500
Matrix Compiler1: 23.04 KB object code size  5.3/2.8/[1.9]
Matrix Compiler2: 15.16 KB object code size  1.7/2.3/[1.1]

